35
CSD_code = SULYED | q = 1 | S = 0 | Stoichiometry = C8H18CoN4O3S(1+) | MND = 6
Co       -2.29094420970274   -1.40846721863352    2.18216179047890
S        -1.94814497020413   -1.03000154261913    4.39575935283440
O        -6.11747681270035   -0.78036830553258    1.48234597806192
O        -0.49740611466168   -1.78699192224893    1.79800222157745
O         1.47518115704963   -0.91168208940194    1.30018123670874
N        -2.50486547726151   -3.33716131930944    2.64864348585897
N        -4.09058931425686   -1.04736703218388    2.46428102499162
N        -2.84295799627918   -1.70889348446752    0.26941410534639
N        -1.80186218237594    0.45603741764715    1.77089374514921
C        -2.76923531997402   -3.64617668152188    4.06466738058068
C        -1.90265529752911   -2.76656454169617    4.94579130118089
C        -3.64486260374687   -0.46232898365549    4.80275635649211
C        -4.68553828923186   -0.90753581038092    3.78402332859744
C        -4.92283953317735   -0.97659867117906    1.42135943625072
C        -4.19169582499463   -1.14762698228198    0.06989261910579
C         0.32290014881985   -0.81384377717630    1.61671148877383
C        -0.33451221843417    0.58251357353373    1.87619488294885
H        -1.56929489730263   -3.68558013278481    2.41119471852994
H        -3.17189462685025   -3.86408541303711    2.08399434402019
H        -2.86469219207274   -2.70817682374764    0.06756680235765
H        -2.18305416548444   -1.32310846843556   -0.40735057475718
H        -2.25579846649637    1.13907682007436    2.37957567800964
H        -2.07940158629670    0.71322979615878    0.82283580583780
H        -3.82608906238791   -3.46741216960055    4.27081601736218
H        -2.55444996426442   -4.69991642370339    4.28049531084303
H        -2.20426840468697   -2.80704837013652    5.99137918213134
H        -0.84996868900508   -3.04254561337816    4.86505845998662
H        -3.55318909890218    0.62368426912398    4.82194659141805
H        -3.87835664989943   -0.80613470583857    5.80831666111980
H        -5.49335908003085   -0.16856302253422    3.72299340701392
H        -5.15040587118358   -1.85222702356790    4.09142326532882
H        -4.14085295532643   -0.16182464321498   -0.39695020486143
H        -4.81063971131352   -1.78128636051551   -0.56918927874721
H         0.07376425080932    1.30895446438603    1.17214390620446
H        -0.04974397064472    0.87532119185958    2.88837017326433

