35
CSD_code = SULYIH | q = 1 | S = 0 | Stoichiometry = C8H18CoN4O3S(1+) | MND = 6
Co        1.60529621515429   -1.15104060372508   -1.96990914240684
S         1.20687348588160   -1.06794796834384   -4.21657869031804
O         3.62760610926543   -4.13188328906105   -3.71106734179906
O         0.41035273162091    0.21841280268013   -1.53117911468182
O         0.12983151773229    2.41149507674000   -1.39111718185596
N         0.08124873764669   -2.42627269044093   -1.84807606161690
N         2.77410736238085   -2.55512045608406   -2.31913359207207
N         2.13903430503623   -1.43590214114958   -0.01726003293142
N         2.91876776604212    0.30532248361444   -2.15422407460119
C        -0.26112414815230   -3.10138971170513   -3.11088563976869
C        -0.31823658887024   -2.06563676311971   -4.21575844407926
C         2.44901647394584   -2.29582654250002   -4.69314649201882
C         3.01371582002969   -3.10518378857851   -3.50825947762822
C         3.27998677868931   -3.25063453801778   -1.14563794854938
C         3.38884175458386   -2.22870231948467   -0.01904975661352
C         0.76979478752067    1.44215563919510   -1.68831839576216
C         2.18133275658158    1.56885818609353   -2.35272599895401
H        -0.68825113873531   -1.79713989943944   -1.59314387013027
H         0.13810182790153   -3.13443531489948   -1.11583523527067
H         1.41568147805180   -1.96747090844491    0.46824502324515
H         2.25356608117506   -0.58378232978134    0.53310673705364
H         3.58208511932319    0.16442338786138   -2.91785271953757
H         3.48617932950191    0.40184536861727   -1.31118840982001
H         0.50686479939450   -3.84930159016052   -3.32902039130635
H        -1.22740162642296   -3.61432295584903   -3.03460650786692
H        -0.43600815627787   -2.51690171262224   -5.20006214848529
H        -1.12371062967770   -1.34899572345036   -4.04828951297930
H         3.26916158865989   -1.75193347882027   -5.16467723613488
H         2.02638740963965   -2.96858465621393   -5.43834707574018
H         4.25088812207195   -3.69827774643858   -1.37539186379369
H         2.60113021562602   -4.06430356407623   -0.85946571763939
H         3.55375380123470   -2.72251751826003    0.94220584456804
H         4.23140407526859   -1.56314732916308   -0.21333198846919
H         2.70343469335068    2.42812170357090   -1.92920125113843
H         2.01128714482542    1.74812089145698   -3.41581629089736

