67
CSD_code = SUMQAT | q = 0 | S = 0 | Stoichiometry = C28H32N6Ti | MND = 6
Ti        1.47081694954322    4.03527052240588    2.84070242538258
N         2.49313013675437    2.25085280443521    3.63271113515584
N         0.50176934275300    3.83136530288709    4.59766938261680
N         2.67163934814232    5.23102543891012    3.60155057629825
C         2.15576299499009    0.13045282662712    2.55139387793368
C         3.00878812384199    1.21676157368416    2.85811884280466
C         4.27869721490476    1.28202803019589    2.29564508281445
H         4.92409392911927    2.11420935598001    2.53767609518510
C         4.70510488213989    0.28874513277224    1.43481530991421
H         5.69374367104434    0.33968380065288    1.00357865786826
C         3.86214083693694   -0.75710746012858    1.10973475759566
H         4.18915367565512   -1.51651882879685    0.41441844146326
C         2.58269162028930   -0.84158086614405    1.64833413706579
C         1.68204221805605   -1.95958288425199    1.21010096137954
H         1.73877655411341   -2.07902381223287    0.12915029878478
H         0.64917048937359   -1.76883220105769    1.49030017960320
H         1.99503024320870   -2.90043148988841    1.66246764327715
C         1.99927320004993    1.98598373720803    4.80534111356808
H         2.28141295717739    1.07177143150953    5.33978187147005
C         1.05568116879112    2.84690485277588    5.38619158008024
C         0.41860000210545    2.83459515837069    6.64086339386654
H         0.63710650274054    2.17214334896391    7.45716285537066
C        -0.53223115597066    3.83954594295612    6.60036437724517
H        -1.21163298687770    4.12084421334399    7.38267439717529
C        -0.44368783115584    4.41965260883708    5.32879565158643
H        -1.03486608017253    5.23169329281376    4.93432265238573
C         2.23231950007763    6.34945082983975    4.39761742929342
H         2.27048412078203    6.11406766118099    5.47756135321853
H         1.20574120987103    6.61142840611435    4.13433916332050
H         2.87845006073329    7.22923278290001    4.23254669843492
C         4.05314633438250    4.93145945717485    3.86757759573058
H         4.68215042401358    5.83153354506839    3.74820822109735
H         4.40998041492288    4.16825693829950    3.17282309913444
H         4.20133326194628    4.56742523384852    4.90251106498883
N         0.44810774477164    2.24988594762178    2.05087217170913
N         2.43696839392805    3.83107902804348    1.08179407813206
N         0.27247744048689    5.23376885166873    2.08040166201814
C         0.78685912147191    0.13013685121413    3.13304562228946
C        -0.06667481958118    1.21603178296799    2.82641241740870
C        -1.33615055030254    1.28136591241442    3.38982721521660
H        -1.98165942130007    2.11366580839323    3.14839924513895
C        -1.76179647746425    0.28821535988855    4.25118812951678
H        -2.75007956086023    0.33916656247333    4.68322393673238
C        -0.91848368605674   -0.75750100915174    4.57583773162361
H        -1.24492463976378   -1.51683110595896    5.27151128441175
C         0.36068507724008   -0.84181567921558    4.03656470295553
C         1.26192309769298   -1.95940426820102    4.47465175084258
H         1.20532001553951   -2.07898741702751    5.55558717671373
H         2.29468018320324   -1.76810034971255    4.19441142178621
H         0.94942087674598   -2.90037370657561    4.02220562279722
C         0.94035898831432    1.98451129819511    0.87768616947608
H         0.65787724530238    1.06982579273849    0.34423170282790
C         1.88210018215561    2.84595289148974    0.29471988023518
C         2.51520925930905    2.83487487959083   -0.96198906517313
H         2.29496534033627    2.17235322019907   -1.77777405026166
C         3.46442073739716    3.84142475223051   -0.92436437554524
H         4.14076072904097    4.12408089000643   -1.70884284739056
C         3.37903311020867    4.42110086158160    0.34765718392245
H         3.97017218021480    5.23405539322567    0.74026113464656
C         0.71402681720039    6.35709891324525    1.29258733254243
H         0.67984469417812    6.12801834558075    0.21117385117538
H         1.73955479839789    6.61783046556111    1.56102094298214
H         0.06691303717740    7.23560853383979    1.46055842463160
C        -1.10731152786688    4.93384180524908    1.80611398159034
H        -1.73827663391947    5.83216761000989    1.92836004756007
H        -1.46621710905850    4.16543538070260    2.49405376366639
H        -1.25001797842568    4.57630971045728    0.76816143070410

