95
CSD_code = SUMQEX | q = 0 | S = 0 | Stoichiometry = C42H44N4O2P2Zr | MND = 6
Zr        8.10732380099802    0.12563975135537    4.35636634208858
P         5.43322416527676    0.74192288725113    3.91852985088787
N         6.68944428570985    1.76683929571341    3.97300844130912
N         8.05521231339450   -0.65317553709787    2.46384031807148
O         5.98170337582729   -0.58990776205165    4.38999066753773
C         7.99604328115896    3.72166806996697    3.62074980965450
C         7.16824110238914    2.70959327195270    3.08544327032540
C         6.91452558695125    2.70614633186407    1.71179058899415
H         6.27688239867630    1.93870626337476    1.29584852782295
C         7.48951099573712    3.66125564059583    0.89401633952876
H         7.28561673379295    3.64514008779378   -0.16720069976130
C         8.33464163948706    4.62138396682884    1.41964781523040
H         8.79693185051285    5.35073848027435    0.77033961134588
C         8.59750199290575    4.65793932681850    2.78599285071195
C         9.52442854587175    5.70288286137599    3.33657442701412
H         9.91378552829715    5.40385835868040    4.30659618233793
H         8.99832854344734    6.65016633269880    3.45559796786939
H        10.35663623124912    5.86809886648250    2.65468465130852
C         4.22128184422093    1.34228347503669    5.14833218174973
C         2.97371658798944    0.74455026778366    5.25996407961550
H         2.70138747497006   -0.04265602711757    4.57002035680006
C         2.09575879259074    1.15643634767883    6.24715343239347
H         1.12327573866334    0.69377791543442    6.33338615135767
C         2.46561645857190    2.16177313727913    7.12672468762607
H         1.77886866547707    2.48214989678828    7.89662506285141
C         3.71466920295174    2.75253375820231    7.02225468615132
H         4.00452992834552    3.53137527318668    7.71245736503110
C         4.59336882305778    2.34265204526288    6.03477147287384
H         5.57342555916951    2.79123662849817    5.93478914141706
C         4.51350872641429    0.54134104945237    2.35557921429436
C         4.93283878691181   -0.45501622018676    1.48330237376597
H         5.78401095235458   -1.05833308508438    1.77132221939041
C         4.27936378413806   -0.62799298860622    0.27617964745625
H         4.59892020709383   -1.40178775783138   -0.40654868773980
C         3.21434297139736    0.19419520551458   -0.05985517891084
H         2.70352103367784    0.05799697676754   -1.00192500841844
C         2.80575450533133    1.19532972845132    0.80696127635362
H         1.98031678864504    1.83869408995923    0.53911752040915
C         3.45527639529872    1.37270219029563    2.01635854959105
H         3.14786276885513    2.15294644382770    2.69892638194525
C         8.21242927897005   -2.09431663969617    2.50754895867642
H         8.07357716318370   -2.54095574457444    1.50405153399016
H         7.45247821246305   -2.51878549778153    3.17953962139073
H         9.22504046157201   -2.39772401679751    2.85750944977500
C         9.02936050269209   -0.06493540617947    1.56744244805176
H        10.07372968319309   -0.35266901562847    1.81781180322439
H         8.94767097840425    1.02952122401079    1.59823191390585
H         8.84846368482333   -0.39027331276408    0.52512242167723
P        10.78128848132422    0.74282197197996    4.79357079067390
N         9.52481899715321    1.76742627702146    4.73930076215524
N         8.15947101109856   -0.65363453530748    6.24876583642866
O        10.23282130315855   -0.58925112958722    4.32270347007476
C         8.21788975605918    3.72233855370600    5.09064467611971
C         9.04635465303768    2.71085735251151    5.62635299609975
C         9.30119412524922    2.70873055573758    6.99975036173028
H         9.93954138884457    1.94196969644357    7.41585423345244
C         8.72661124341823    3.66444431792941    7.81717192367021
H         8.93143490083896    3.64934604489968    8.87822632273953
C         7.88087874019107    4.62379906324578    7.29130633480804
H         7.41882414560234    5.35369742796231    7.94017418804985
C         7.61700722182020    4.65916631152200    5.92503938204928
C         6.68855515092028    5.70345876801387    5.37568070941252
H         6.31674855377803    5.41550912729426    4.39554416845962
H         7.20686349331008    6.65768138633886    5.27999935823205
H         5.84427070066218    5.84994768563093    6.04705973112943
C        11.99297824709572    1.34294183399596    3.56341375997001
C        13.23947661416245    0.74323738429657    3.45032801889960
H        13.51076160526648   -0.04534209935545    4.13911626815461
C        14.11761799213999    1.15491936075274    2.46323059582393
H        15.08928180774118    0.69075568806131    2.37586066684297
C        13.74901633249186    2.16210047379831    1.58523843224130
H        14.43591292757159    2.48241868569592    0.81544442940403
C        12.50104274340717    2.75487406405193    1.69118199446094
H        12.21218377978784    3.53521255368571    1.00226488699067
C        11.62213083507948    2.34514626379878    2.67853994750299
H        10.64287050252085    2.79520205419232    2.77946853595024
C        11.70131687380522    0.54247237022685    6.35640743650558
C        11.27978580611784   -0.45166258242001    7.23018734231827
H        10.42683816983742   -1.05309605594817    6.94329441940546
C        11.93325496026111   -0.62461754804078    8.43731669591903
H        11.61197333665462   -1.39665053622254    9.12123051506286
C        13.00045944178915    0.19535348670986    8.77185711178905
H        13.51127405160108    0.05917496612290    9.71393429703813
C        13.41121892647388    1.19430149596068    7.90355522741637
H        14.23834976780999    1.83597145084815    8.17023486091368
C        12.76170153303464    1.37167490104355    6.69414818731260
H        13.07083794957057    2.15023690087164    6.01043960551879
C         8.00132412585217   -2.09468716070252    6.20484592973407
H         8.13983899366450   -2.54152486759391    7.20829909783793
H         8.76111863936015   -2.51949992553926    5.53289157641259
H         6.98857721383646   -2.39745290173471    5.85478533502871
C         7.18607619087520   -0.06484706629133    7.14561665175732
H         6.14123843169665   -0.35030373388917    6.89453971076023
H         7.26990093912688    1.02948920464733    7.11635949834500
H         7.36601906177706   -0.39195397142538    8.18755168042860

