65
CSD_code = SUMQUM | q = 0 | S = 0 | Stoichiometry = C23H37ClN2SiTi | MND = 9
Ti        2.12450205506059    1.76401821901768    2.71707733075573
Cl        4.18284398077031    1.56693633897125    1.81238900936033
Si        1.15011450490465    4.49897710539030    2.47957557561566
N         1.72917404814652    3.18295192899045    1.52160395599016
N         2.47377553721999   -0.70226153245978    2.63438341963781
C         1.65801293278940    3.52703523281815    4.03476560230367
C         0.92368080278416    2.43587895102992    4.59524761455232
C         1.84173244800293    1.52644589960417    5.18526683012891
C         3.15265784475102    2.02091719921941    4.96099899991294
C         3.03929146971970    3.23584328777786    4.24448076995763
C        -0.55004637215423    2.41618365264580    4.87173814366677
H        -0.73354633232528    2.80081670368199    5.87905008279707
H        -0.94868343591897    1.40374112775579    4.82922538679797
H        -1.08991612031985    3.04363075137889    4.16982452497763
C         1.43540801955690    0.42430073189921    6.12163825355030
H         1.04257440216141    0.86143423918679    7.04348599146295
H         2.27502351105572   -0.21362885533579    6.39225057061340
H         0.65247916647226   -0.20142859070270    5.69426033308172
C         4.43955107769145    1.49663606402131    5.53476808436070
H         4.28680724367726    0.57177505135960    6.08728546523219
H         4.85800790254255    2.23038479372137    6.22735975670445
H         5.17711592196859    1.31507744755008    4.75105408775091
C         4.18081636600471    4.14390259062862    3.89144160185972
H         4.04831797139217    5.11466601251775    4.37212096638439
H         4.23749004642733    4.30278932901242    2.81387510502572
H         5.12768251125754    3.72000082481332    4.22072735213804
C         1.97206940425537    6.22727634995250    2.31310465632362
H         3.03570352735584    6.17728156315571    2.11314846384748
H         1.50982951478786    6.78546421594615    1.50477981310966
H         1.83264495596180    6.80350764419123    3.22214986838075
C        -0.72754608353676    4.88319547985583    2.32450483512204
H        -0.89578272417258    5.60576671262507    1.53294624996576
H        -1.11645606913663    5.31619252125900    3.23976689840389
H        -1.31501333074186    4.00212983834952    2.08840854633687
C         1.87485328484977    3.10804032974987    0.08587082408490
H         2.15307110896215    2.06871562580582   -0.17808182738369
C         3.00226696610893    4.02851232444883   -0.39978532406581
H         2.74736832515296    5.06380162936319   -0.18927221999463
H         3.92629501671966    3.77694199084671    0.11665205341016
H         3.15627269907876    3.90814519448046   -1.46963700669597
C         0.56959886615521    3.45505254782941   -0.63889804116384
H         0.67772227529681    3.29811588158856   -1.70969961290072
H         0.31908084443536    4.49695534854969   -0.45744596346234
H        -0.24204354459753    2.83259071379341   -0.26941685283363
C         0.33443188837629    0.87615039568771    2.06044082087544
H         0.53124476587233    0.62597971152174    1.00495451784692
H        -0.55788861137822    1.51130944942405    2.07972754892808
C         0.10127258550503   -0.34900789272538    2.84072945690848
C         1.03629113491221   -2.34446455664726    3.85151549679188
H         1.87540954999692   -2.98933581312010    4.06535823822287
C        -0.21705929544518   -2.69184090477874    4.33640015334195
H        -0.33665986476083   -3.59931098723722    4.90892026961964
C        -1.30407022520739   -1.87235030895145    4.08989014110508
H        -2.27855893529621   -2.13789908488857    4.47319861636276
C        -1.14655083173881   -0.71667681237778    3.34513431771228
H        -2.00317108627033   -0.08842122037396    3.14072579645759
C         1.20133568092147   -1.17764927577159    3.12468570073135
C         2.68678919332543   -1.19813788928956    1.26825657438736
H         2.80659759853799   -2.29136316248107    1.26845682149021
H         3.58884053038169   -0.74200248555963    0.85581168245521
H         1.83845230594159   -0.95116791649780    0.62897142843901
C         3.60476835927543   -1.13631873358107    3.45397253597696
H         3.39050643253375   -0.94945410654968    4.50414008274321
H         3.82332041941063   -2.20462812440735    3.31960023368801
H         4.48829586453237   -0.57092069768027    3.15371939081190

