77
CSD_code = SUMTEA | q = 0 | S = 0 | Stoichiometry = C36H30P2PtS8 | MND = 4
Pt        0.86187097993178    1.28226291403633    4.90052358536992
S         2.62552681454456    1.70121423751065    9.56134908112188
S         4.95466413050691    1.15760533353538    7.77182546402755
S         6.94124542172942    1.31248466281457   10.33789487756875
S         4.63696645493825    1.86083571833970   12.10591950265095
S        -1.36448238426195    1.70619859318835    4.55121348951409
S         1.08542381808847    0.79148864152490    2.67158966007542
S        -0.56285128636363    0.74812520104307    0.30440913403127
S        -3.24904463763340    1.64164372726360    2.36981776047556
P         0.64023824944896    1.54759526165699    7.15377855733482
P         3.10631905384875    1.09236974507960    5.25456654645393
C         2.31778183391846    1.50706763387601    7.85142052707650
C         3.36588650347263    1.24301882183038    7.04697241520761
C         4.37709503827994    1.47409295234825    9.41713065064882
C         5.20394559201598    1.53955508357327   10.47449969983237
C         7.27441598311150    1.54633359670463   12.05609678531965
C         6.23225484133392    1.79014173092174   12.85577847565390
C         8.70034077790360    1.43084836602216   12.47711850148511
H         8.85869526848479    1.92019542898150   13.43404875843555
H         9.34601779769248    1.88767455051424   11.73004782195764
H         8.98235300117912    0.38180372355568   12.56952304305219
C         6.29084613755164    2.01040589272268   14.33271791517240
H         6.72532859754368    1.14545089732768   14.83274270910953
H         5.28827059494431    2.17062112273394   14.72059381687875
H         6.89751602941843    2.88517949463077   14.56697588155681
C         4.04126251147405    2.52648000956367    4.65916841747893
C         3.29921169082287    3.62164646345179    4.23024830161002
H         2.21177089069354    3.54920887597483    4.22805798890065
C         3.94513163437580    4.76648277554745    3.80243604431445
H         3.37241671375505    5.61634523788322    3.46240135759006
C         5.33015467589482    4.81661474343571    3.80846908440723
H         5.83769519942664    5.70871740500474    3.47213279495889
C         6.06981932119220    3.72642696069542    4.24205481632347
H         7.14889703515326    3.77268615161509    4.24514060101041
C         5.43153862277470    2.57724209202122    4.67054392245875
H         6.00171838274891    1.72260311784090    5.00845168282277
C         4.08843757415746   -0.34816169863805    4.78500001654087
C         4.61116314837897   -0.40616920745892    3.49537045230992
H         4.47472004554742    0.43434281224740    2.82862023129160
C         5.28670842925106   -1.53820552682479    3.08144420996069
H         5.69560269848583   -1.58486171271840    2.08317036550681
C         5.43243420236409   -2.61438773338596    3.94317122753938
H         5.96218029896262   -3.49719828664827    3.61719477122580
C         4.88806871634344   -2.56752023235208    5.21673092520688
H         4.99019915682587   -3.41336298059267    5.88062762849623
C         4.20524910067736   -1.44179775515902    5.63794965660466
H         3.76057779879301   -1.40686430433396    6.62379047272593
C        -0.09698986171836    0.10671198899252    7.96966071109552
C        -0.40842200742983    0.08909660624150    9.32555921169356
H        -0.24763958791086    0.97200731942528    9.92919034318636
C        -0.92700680761836   -1.06366805970386    9.88551221908963
H        -1.17333572174647   -1.08457769434628   10.93690438951612
C        -1.13216019958991   -2.18983704411082    9.10230216258999
H        -1.54141405563658   -3.08463575790960    9.54771361075474
C        -0.81739593340337   -2.17222948209352    7.75271430746605
H        -0.98059946822195   -3.05013177442384    7.14563216198122
C        -0.29666919757705   -1.02410255079243    7.18541512759695
H        -0.04758525543800   -0.97733942455204    6.12550767542072
C        -0.12939798113233    2.98209860701476    7.93451046093859
C        -1.50745420768822    2.97350082828343    8.13544825922946
H        -2.07612767617575    2.08960292728606    7.88073935023526
C        -2.13098356322950    4.09534558220510    8.64723019428900
H        -3.19887694416171    4.09048549270296    8.80691110678015
C        -1.38836037209322    5.22666756387645    8.94795116647495
H        -1.87836228051967    6.10121328162367    9.34957820117178
C        -0.02129568460818    5.24491849021864    8.72136115620727
H         0.55228308017093    6.13304537037949    8.94236234837009
C         0.61060250125764    4.12977127304087    8.20373930333209
H         1.67424626238351    4.14439818468693    8.00548385201602
C        -1.55954359615307    1.38758369936506    2.83747392331580
C        -0.53346337415170    1.05320197988818    2.04897043311170
C        -2.17525909191841    1.45741483486013   -0.15722055529600
H        -2.12033886330149    2.54318342483289   -0.07001368242755
H        -2.31308511921734    1.18034609317576   -1.20251218059157
C        -3.28066101299728    0.89538234058080    0.70906264490209
H        -3.19172863839940   -0.18717126355013    0.80739846943352
H        -4.26295780152537    1.14733662388933    0.30898399882884

