77
CSD_code = SUMTAW | q = 0 | S = 0 | Stoichiometry = C38H30P2PtS6 | MND = 4
Pt        0.28739227966080    3.61418352177644   20.62609398673098
P         1.87065042468189    2.33359564189509   19.59190846760774
P         0.22322152409297    4.86540047994920   18.71493946789927
S         3.21301320930838    4.74470939942946   13.08951341820985
S         4.84483373174957    2.43940493527326   13.96028493479726
S         1.63238060145455    4.71657553112564   15.92791746596357
S         3.27650221149473    2.38216643876516   16.80227890705628
S        -1.43664800612885    4.81548978691670   21.55667986644240
S         0.54052449994648    2.46059298786609   22.59807476609335
C         4.56043764958918    4.88336964551345   10.66816357606899
H         5.55783389191748    5.30416529524874   10.54835826051705
H         3.83651086743819    5.69292072111388   10.63480478466133
H         4.36569729802970    4.20965597298568    9.83470210186565
C         6.27564719375186    2.45879163410408   11.59244988959959
H         6.37555551661231    2.90607926548737   10.60835771117592
H         6.06497910893438    1.39600981655822   11.48149506660051
H         7.22067980193250    2.55752011560650   12.12555998419990
C         4.44580739534545    4.15917677391317   11.97104081227703
C         5.18309957081403    3.11702970615111   12.36415501004731
C         3.56733762284122    3.57999722756992   14.35595526652268
C         2.91569481919788    3.56161131409634   15.53099596121195
C         1.37301410973614    4.08937124612118   17.54005877495327
C         2.12718271694327    3.04761951351844   17.94036109800805
C        -1.54372509413937    4.16881877457632   23.18551391095289
C        -0.70048097185516    3.15185504645779   23.62991230397355
C        -0.83245568483094    2.66574500395712   24.92666715278282
H        -0.17132677306091    1.87625402232824   25.25315244767116
C        -1.78958942380782    3.18782733409485   25.77214656707090
H        -1.88394761710440    2.80369500997079   26.77721024237826
C        -2.62682767204634    4.20384697615396   25.33099236394031
H        -3.37617257783925    4.61551886128056   25.99100891777560
C        -2.50440251960634    4.69069260125995   24.04586061713409
H        -3.14812870175797    5.47973714120853   23.68530435432140
C         1.02671352583217    6.47816170270721   18.92427064543532
C         1.03627718093359    7.44908549817109   17.92786683807345
H         0.51252798042009    7.27536563769754   16.99769272376945
C         1.71661003113272    8.63331954489720   18.14275691294865
H         1.72659761973839    9.39229874573527   17.37431942546540
C         2.38431440489241    8.84864629614370   19.33916112256996
H         2.91072311217116    9.77808704279472   19.49927453046789
C         2.37769262897988    7.87921420375639   20.32949926388920
H         2.89645012858773    8.05043888471696   21.26090753113685
C         1.70099161596379    6.69181468096746   20.12151830649641
H         1.67203021891717    5.91577152695738   20.88649380422984
C        -1.25192878366008    5.20117115997618   17.72789009377784
C        -1.66337408909971    4.31698922798590   16.73494993200105
H        -1.06045392343647    3.44938904735667   16.50162194435248
C        -2.84260883026203    4.55357481392932   16.05351545202643
H        -3.15767729391148    3.87558196853056   15.27396581488695
C        -3.62275126681651    5.65280851962451   16.37498842655639
H        -4.54464626326657    5.83233235844119   15.84191749134203
C        -3.23089760764605    6.51426217808893   17.38802677841234
H        -3.84989717741660    7.35980516100512   17.64888551069477
C        -2.05073209674451    6.28938713618999   18.07045835022971
H        -1.74013790999719    6.94402995037645   18.87338808765972
C         1.28330207825117    0.67458113400834   19.15604110534865
C         2.11152760055079   -0.29410177964718   18.59779908007114
H         3.16093191052824   -0.08432784330132   18.44122803156920
C         1.57952471753763   -1.52251209273510   18.25268213238347
H         2.21699566787518   -2.28013572485475   17.82107830526914
C         0.23331909303219   -1.78424822437777   18.46006364271086
H        -0.17254955905896   -2.74839207068321   18.19115909597957
C        -0.59174682518144   -0.81702083763548   19.01152414390154
H        -1.63896029224571   -1.02449851956412   19.17344738328543
C        -0.06777911029886    0.41475337257455   19.35737463161762
H        -0.69091639946391    1.19048216549868   19.80070822101867
C         3.55015465238335    2.08751506851267   20.21170459258678
C         4.55308906344502    3.00951892927959   19.92622055660588
H         4.34442299099540    3.84887229041379   19.27568737484811
C         5.81000808707118    2.84697519021379   20.47776645942129
H         6.59321356523260    3.55421685647835   20.24740636036535
C         6.06272702611340    1.78368618244174   21.32984178501507
H         7.04579411034292    1.66092008253077   21.75969215388242
C         5.05415025674225    0.88571646964038   21.64296432894557
H         5.24871859001530    0.06866050945971   22.32172722048623
C         3.79603875360135    1.03688820468361   21.09183726600814
H         2.99581981393789    0.35278760873699   21.33925868576074

