84
CSD_code = SUMWUS | q = 0 | S = 0 | Stoichiometry = C35H43ClFeN4 | MND = 5
Fe       12.56741212273962   12.43084723605112   10.87627556343436
Cl       14.26027028788633   13.37852670105867   10.28917866658810
N        12.00172579950175   13.39261387545524   12.29077780719481
N        13.39897521438545   11.15138020104339   12.07080647936861
N        12.28354163676029   11.16569445792040    9.53645335673787
N        11.33929015944423   13.58515101177470   10.01130639050771
C        11.25186074738647   14.54505807439069   12.06960290298666
C        11.15488303155533   15.26448507625946   13.28585887766441
C        11.83651643876308   14.53215158393326   14.24706612688455
C        12.37933489492382   13.37876313802492   13.61068562845535
C        13.22635442860421   12.41158324727068   14.13222475402955
C        13.70103974406339   11.34105940798962   13.38809185867160
C        14.45990597300960   10.21726563326087   13.87589565869599
C        14.57559504937795    9.33775799465267   12.83558808910597
C        13.89206152519592    9.93339121430849   11.71683141073084
C        13.65911483902457    9.36340411584662   10.47624067532329
C        12.89198035312063    9.93089846163655    9.46984646722423
C        12.68268165343448    9.35626802132199    8.17326277553970
C        11.97410075330652   10.27137322830174    7.43648639907760
C        11.72441028215949   11.39690200539835    8.28462552414319
C        11.02480318478774   12.53463388890411    7.90863905228088
C        10.79881713220042   13.59605663168397    8.77318999065900
C         9.95499670311265   14.75049146409932    8.65449139800881
C         9.97145438057964   15.39095301087990    9.87188511218826
C        10.84165246451800   14.63193830597417   10.72682051712409
C        10.42846676385582   16.54639695493613   13.52517716114397
C         8.98854740429163   16.29333643723730   13.97968929992160
C        12.02393955847870   14.85648278821334   15.69096330672738
C        11.12862452459450   13.98543354217229   16.57684807383979
C        14.94899540476484   10.06981709762738   15.27793684880005
C        13.85214206442089    9.53316390915490   16.20112176097473
C        15.21695577190097    7.99051802604794   12.81869906884442
C        14.18560566345847    6.87759862729644   13.02194156738370
C        13.17130046640249    8.01193955047942    7.74850276062952
C        12.27119864508906    6.89846572502745    8.29009212204836
C        11.48485880874826   10.13772263949695    6.03244623950336
C        10.03169408665056    9.65764025954754    5.99686056924795
C         9.16822722858498   15.09588831929808    7.43371444687433
C         7.84880719892085   14.32031590754405    7.39146535724956
C         9.24933479511481   16.65663885585855   10.19428393151814
C        10.15259621227583   17.86920540891090    9.95113953372616
H        13.51190186792324   12.48315382897992   15.16984795148893
H        14.09923977379952    8.39851039301208   10.27859802891654
H        10.62074840091612   12.57794338659703    6.90971110046224
H        10.43120453214847   17.14451952471998   12.61637172412923
H        10.94835677831956   17.11759027373068   14.29770849522578
H         8.45112519231800   17.23355992764308   14.08380294762768
H         8.97898586596131   15.78310215050617   14.93967881461340
H         8.46429344387469   15.66744616983860   13.26031846170230
H        11.79321870225783   15.90751527155898   15.87088054149497
H        13.06851150915565   14.69061041739251   15.96649519657259
H        11.28733969884473   14.22414634770417   17.62617154789136
H        11.34702135406328   12.93176095615972   16.42127554411116
H        10.08053358021953   14.15157570464118   16.33898523636347
H        15.29183686875587   11.03850954604395   15.64879578358473
H        15.79886560732506    9.38461226680563   15.29764747761307
H        14.21820795975980    9.45666927652767   17.22276613167249
H        13.53164631980917    8.54689013711402   15.87427999300012
H        12.98683912278306   10.19186015568551   16.18862113498164
H        15.72691745023384    7.84029680403967   11.86417562276714
H        15.96620338947418    7.93231020998011   13.61068833491101
H        14.66522130485190    5.90183822128208   12.98345173735933
H        13.42023136576115    6.92130741040596   12.25053395336967
H        13.69839363116755    6.98516985160037   13.98812385684084
H        14.19161403614480    7.86004153895742    8.10787079966658
H        13.19195333318432    7.95694393780130    6.65871346622035
H        12.64799754127357    5.92434683857291    7.98620685764670
H        11.25900193551029    7.01189788556887    7.90903872720098
H        12.23045806007977    6.93420393048660    9.37614063754522
H        12.11030413589786    9.42362133760409    5.49364646373572
H        11.56347170112027   11.09901925501012    5.52065294509076
H         9.68212383239168    9.57869081018896    4.96983077438914
H         9.38762193837025   10.35092700230640    6.53285061828993
H         9.94525299658475    8.68123315204545    6.46760650527217
H         8.95970296822517   16.16670438525198    7.41463842272577
H         9.75659460995166   14.85422375955067    6.54568863221281
H         7.29090900345141   14.56540042906719    6.49026152558686
H         7.23721353021147   14.56688046454688    8.25651392740282
H         8.03800971100495   13.24944668252219    7.40441560679280
H         8.91391047109629   16.64441831463520   11.22972110359792
H         8.36377626406254   16.73891951879689    9.56104405721847
H         9.64340148511571   18.78838769742571   10.23369598859969
H        10.42335062854053   17.93096635634665    8.89955322593530
H        11.07151470066277   17.78441643505456   10.52726656711197

