69
CSD_code = SUNBIM | q = 0 | S = 0 | Stoichiometry = C27H37ClN2SiTi | MND = 9
Ti        2.71555108124819    0.06152923767561    4.25474542588054
Cl        3.23724820844553    0.53347375289964    6.44585685504595
Si        2.62412775878874    2.88465505473702    3.65007767631695
N         3.74834197928764    1.57596019580919    3.80159129947197
N         3.27480612246969   -2.05370851492773    5.09399024050764
C         1.18246457313911    1.63514438547068    3.67849608204920
C         1.11862706798601    0.58777131210604    2.70134736227660
C         0.54954580593578   -0.56560409847001    3.30652183807441
C         0.27111998078154   -0.25064421533762    4.66141267524730
C         0.65319592984986    1.09429828409000    4.88520987692889
C         1.23626225949489    0.77120287501518    1.21839648896050
H         1.83987786350116    1.64138246100359    0.98166278408190
H         0.23808227390149    0.92757955908305    0.79894843186553
H         1.66716555714397   -0.10408022845183    0.73404152000271
C         0.07735409681931   -1.76511344471108    2.53528402199308
H        -0.24159185147328   -2.57282068657243    3.19302893389901
H         0.85527875511999   -2.13976748420924    1.86791441437405
H        -0.77959587046183   -1.48486938730237    1.91739618868880
C        -0.54757823400331   -1.05672346135728    5.63025879850466
H        -0.60586246058692   -2.10623395973269    5.34254621451512
H        -1.56965234813567   -0.66774412848550    5.65276690937788
H        -0.14639550846326   -0.98512117548276    6.64154762698791
C         0.29577872417372    1.85910710666445    6.12459552415756
H        -0.75048848192274    1.67460498083416    6.37812156832591
H         0.90221989702300    1.56088939302409    6.98075458739667
H         0.42683703713576    2.92434112655360    5.96173016524623
C         2.62192083431122    4.15405226663764    5.08879484881686
H         3.42527620253276    4.86891266076448    4.94345012811929
H         2.77570733440194    3.66832827857805    6.04736875785810
H         1.69509243250852    4.71680692247486    5.13516701856646
C         2.80153616796762    3.92966337395875    2.05224802326276
H         3.43295139416605    4.78967601012000    2.24570663217838
H         1.83925559180447    4.29612334524520    1.71288485145247
H         3.25727736504161    3.37562555072788    1.23939529770214
C         5.15578237007864    1.66694841250273    4.12321026881371
H         5.66858857948579    0.76631538023540    3.73989005764061
H         5.28851716686513    1.69529638242921    5.22083188973046
C         5.78547662524894    2.89626056858298    3.52364328117414
C         6.12310295878417    2.93054162517606    2.17651986358677
H         5.98729240158405    2.04493354474873    1.57284677463985
C         6.63724466576756    4.08194693380694    1.60845217111620
H         6.89424067400679    4.09715909906434    0.55900004073483
C         6.82598483457061    5.21444452967458    2.38266066374263
H         7.22501734724029    6.11491523347630    1.93895543699517
C         6.50955250867899    5.18391675547751    3.72985794865151
H         6.66640615929507    6.06103940996127    4.34134859902874
C         5.99424419446471    4.03103630763236    4.29623779909379
H         5.75599241609444    4.00610497602719    5.34969629340151
C         3.58664909490169   -0.95248154061959    2.67923050521852
C         4.12901415342071   -0.37508970661090    1.52918043583286
H         4.15314911871668    0.70586760651638    1.44946500377758
C         4.62675787465767   -1.13678326693721    0.48158426309138
H         5.03975828283448   -0.65160488141041   -0.39247324401223
C         4.59175831931966   -2.51909174499206    0.54713649950222
H         4.97181595550690   -3.11702209065208   -0.26855843614214
C         4.07436972765853   -3.12982069334436    1.67585384586437
H         4.05101189581312   -4.20986796154547    1.74750963928508
C         3.58725758659700   -2.35324072907363    2.71817924312129
C         3.05304701423616   -2.98205952600250    3.97881682576439
H         3.54097306550570   -3.95269877275247    4.17648019311974
H         1.97596415585989   -3.16466684538116    3.88322658765137
C         4.71305412542397   -2.02300593017913    5.39189111213488
H         5.27198487812176   -1.68279625764930    4.51488803339382
H         5.06880510288770   -3.02645888333548    5.67040251345579
H         4.90122345043449   -1.33993626947967    6.22172871119530
C         2.57838540768198   -2.54921533927902    6.28075816803117
H         2.71054902382543   -1.84424036225700    7.10169798307529
H         1.51553115908789   -2.65697309772582    6.07101304096545
H         2.97556016542554   -3.52867021449617    6.58527891920835

