154
CSD_code = SUNFUD | q = 0 | S = 0 | Stoichiometry = C75H75N3Ni | MND = 3
C        20.10275800016434    5.44391619401181   14.59103711920369
C        20.46669348622577    3.77175716512412   11.97430835475475
C        17.61175175794633    3.97368192672010   13.44199105814486
C        20.14866969194722    7.67173851006361   15.73788898026082
C        18.85847425357301    8.21901725102257   15.81166534088055
C        18.68680137521481    9.43146542145705   16.45938424930518
H        17.69628779731090    9.85945282222658   16.51717244386991
C        19.76766678878228   10.08365938399468   17.03120808748437
H        19.62063432073989   11.02574865961246   17.53853891749104
C        21.03364628280425    9.52976739933485   16.96147748227262
H        21.87141636133271   10.03099196178299   17.42324934754915
C        21.24860209670908    8.31944627521908   16.31395486904589
C        17.71618407023661    7.47782120382918   15.22767307205864
C        17.01150987921216    6.57745522789224   16.02663992280684
C        15.93943174559133    5.88789256075310   15.48313338680152
H        15.39955435080622    5.18560196192635   16.10326272705605
C        15.55983809061168    6.07251406767024   14.16267274541429
C        16.28830592429953    6.95470577588455   13.37717790769963
H        16.01574067635624    7.08707971809643   12.33958206669680
C        17.36926669743010    7.65433889081243   13.88810851496517
C        17.43378638674449    6.33665784113263   17.44503372832280
H        16.69730817141421    5.73070008704041   17.96634216491468
H        17.56772983032719    7.27553179667931   17.98149003958111
H        18.38297020101551    5.80065940623444   17.45805428656789
C        14.38676783464260    5.34303833114658   13.58223524770174
H        13.58067237462369    6.04227829471292   13.35865886351985
H        14.00973531066413    4.59779764337590   14.27878854149444
H        14.66538298135864    4.84875941233917   12.65280546877500
C        18.18086825609263    8.55184593846879   13.00265723709579
H        17.60807075895758    8.85204427896311   12.12861509153555
H        19.06406547525686    8.01208102898928   12.65719780118613
H        18.51063536270958    9.44296541861264   13.53481173683324
C        22.60080251902103    7.72421349254254   16.23985250409012
C        23.61587330736987    8.37549912025238   15.53461941519820
C        24.87038138991742    7.78669107829371   15.45055553976195
H        25.64699372876820    8.28975577876060   14.89105558345759
C        25.14423796879791    6.57285557460753   16.05931128406327
C        24.13289383142549    5.95489501379521   16.78170332447883
H        24.33707758905144    5.01600461314196   17.27756646763831
C        22.86813114276686    6.51122665527112   16.88416295595277
C        23.39448210591916    9.70140217880728   14.86548494828459
H        23.72300106519854   10.50854980886401   15.52151748150268
H        22.34545004274280    9.86474471880482   14.63214447749013
H        23.97495580657048    9.76261004766349   13.94713208424521
C        26.49961110883956    5.94037061764117   15.96162606094842
H        27.12818398511721    6.47320824997269   15.25239663965528
H        26.41397279181440    4.90242166718041   15.64336397702037
H        26.99139268376960    5.95101632465619   16.93436260612780
C        21.82585139737664    5.81480313553740   17.70884364813970
H        21.24442684046327    5.13013705045170   17.09073866490885
H        21.13830975468405    6.52671847201399   18.16172923142090
H        22.30040385075501    5.23592973058109   18.49881358623492
C        22.46659321582569    3.04020619809742   10.63064978682567
C        23.35330521530734    4.05343460748920   10.23757274762105
C        24.50953494416461    3.68877417348899    9.56667069160504
H        25.21023789454807    4.45617785323961    9.27171287007730
C        24.77838830567981    2.35692876778477    9.29432266150196
H        25.68723475321870    2.08855587416608    8.77616553066728
C        23.89356233174872    1.36621502251596    9.68807974682992
H        24.11133860563717    0.32766621627320    9.48402398085973
C        22.72714458069573    1.69145770396016   10.36260025103087
C        23.00547281608686    5.45792955790496   10.55163073397945
C        23.04788411543994    5.91646077619457   11.86896391799770
C        22.62163384377518    7.20673627791672   12.14811848778633
H        22.63901377255496    7.54540536697130   13.17318872266782
C        22.16418764227744    8.05068865695700   11.14923695033451
C        22.14843503308406    7.58398713835877    9.84226911541599
H        21.79314773117340    8.23142623110237    9.05227708262242
C        22.55542462808855    6.29762647540551    9.52964931900504
C        23.52322885564418    5.04773090599002   12.99492879710501
H        24.07596421768942    5.63947938855986   13.72138138473333
H        24.15554493224096    4.23704042686318   12.63897429803497
H        22.66161616565837    4.61821630353382   13.51124686698015
C        21.71011858870542    9.44367417225821   11.46778662480217
H        22.56117887875477   10.12602079936651   11.46763974590731
H        21.24712528345826    9.48211178489491   12.45093762390410
H        20.99448070007635    9.79679009377080   10.72881263353246
C        22.48463665026469    5.80387984668408    8.11381253787528
H        21.97378174660813    6.52691185300750    7.48261078363729
H        21.94903953714101    4.85653384337191    8.06304461090298
H        23.48336155340684    5.64090327144657    7.71003607364497
C        21.76154310284630    0.66778316357107   10.82650345181276
C        20.84716409158014    0.11590118244986    9.93017136984928
C        19.92129817068855   -0.80784040134462   10.39172346536300
H        19.20901237263185   -1.23257105516532    9.69785760181462
C        19.88173649442723   -1.18564523661268   11.72483529656126
C        20.80811675630847   -0.63453838813554   12.59879267779539
H        20.79323063508499   -0.93104220872646   13.63847000732265
C        21.74681075204409    0.29005025010881   12.17031265421305
C        20.84867873079273    0.54406739440071    8.49216695481086
H        20.69462617220927    1.62075981323151    8.41759572256281
H        20.05915876047360    0.04061994038354    7.93933804528768
H        21.80325841083389    0.31538031266219    8.02008026124614
C        18.85147351490260   -2.15163612940160   12.22918060350086
H        19.32245744102584   -2.95870775877942   12.78836168358864
H        18.28284647437883   -2.58017567612743   11.40754846337336
H        18.15605168816711   -1.64541279157753   12.90060866471667
C        22.72130651518647    0.88921159677951   13.14035477890288
H        22.79136213097472    0.28100148218363   14.03935467610956
H        22.39464223226141    1.88891796044374   13.42939364922415
H        23.71168402746920    0.97720522753316   12.69657178194821
C        16.23331731064087    1.90603136160041   13.82825571589336
C        15.45503772632526    1.33003885030559   12.81442631941442
C        14.90995633714671    0.07294960215996   13.03058471261681
H        14.32208799608675   -0.38287123766725   12.24751380069735
C        15.13192149191452   -0.60113009928956   14.21947719750219
H        14.71993874464506   -1.58904267733290   14.36385257573155
C        15.87419468582432   -0.00885062883610   15.22629362882940
H        16.04332903424718   -0.53084052419979   16.15708020621165
C        16.42799721672685    1.25211936380202   15.05346753751420
C        15.21712897268197    2.05755569357815   11.54732746120630
C        16.25159643779183    2.21977349370010   10.62178529065520
C        16.00542975074890    2.92860793737672    9.45647578401864
H        16.80696772664746    3.05884239618954    8.74292982136604
C        14.75908003312539    3.47492235163846    9.18570914067603
C        13.74071164331346    3.28612283723558   10.10605903382099
H        12.75998803244824    3.69691368943141    9.90898156652468
C        13.95069474310324    2.58225696861190   11.28352488114135
C        17.60734662173251    1.62995294049982   10.85738341261844
H        18.24320793899928    2.33892845864574   11.39402907576553
H        18.09540156220616    1.40632913232153    9.91223543252459
H        17.54982324299057    0.71705540159557   11.44621520371600
C        14.53136190552752    4.24541317634280    7.92008078552352
H        15.17628899134741    5.12315590766312    7.89254551385042
H        13.49722654251068    4.57179033202989    7.84189942787022
H        14.76958248649114    3.63111010690423    7.05249535062468
C        12.81067831512388    2.39129387213693   12.24215952483801
H        13.16021203397223    2.33172336370190   13.27020685702685
H        12.28159329433611    1.46495265180400   12.01518895003789
H        12.10133518910784    3.21157140238984   12.15796332622207
C        17.18319443877707    1.89399777937947   16.15498378318027
C        16.47513623973049    2.30811278454546   17.28953055934943
C        17.16140796585576    2.85472300670499   18.35919315031126
H        16.61229152332708    3.16698294894202   19.23725182618329
C        18.54204900660405    3.00769185317642   18.33335673618690
C        19.22218643852785    2.62476229411462   17.19224916394189
H        20.29543352372473    2.75023900686241   17.14212819021775
C        18.56564549916629    2.07262644486093   16.09771331068248
C        14.98017505788900    2.17760055498970   17.35247700608932
H        14.57546110826503    2.81776605115369   18.13354556466001
H        14.68998954876245    1.15069320215057   17.57432452484526
H        14.52446104553476    2.45123054409375   16.40204731560751
C        19.25893837378081    3.57723620301158   19.52052920363811
H        18.95164625854536    4.60830352197121   19.69367271659409
H        20.33530533685032    3.55783649277992   19.37123638578571
H        19.02034411607212    3.00548017245861   20.41658892002180
C        19.37724148841389    1.69415385557483   14.89853506243725
H        19.61999031293252    2.61393956488199   14.30395869300899
H        18.85727442322765    0.99656341694409   14.24586119886459
H        20.32830620677083    1.25858731774283   15.19912447282444
N        20.29307051186577    6.48900160700048   15.09525355754494
N        21.34100183777552    3.37543941849161   11.29827148169959
N        16.86310243008292    3.08531292949308   13.62200598914248
Ni       19.43357678428634    4.21247945554197   13.41354998310718

