123
CSD_code = SUNFEN | q = 0 | S = 0 | Stoichiometry = C58H62N2Ni | MND = 6
C        11.97245393301930    3.00397487016059   21.37585706419321
C        10.71147123333957    5.54797271896583   20.18348913040615
C        13.68064835945220    6.22616919315797   20.13443104074507
H        13.13611828614099    7.01785419992519   20.63723719401332
C        14.21016960333424    5.23043474895692   20.88025812327976
H        14.08394576795005    5.27789862843959   21.96027528897374
C        15.21369180445305    4.20836383807523   20.40386546542342
H        15.27003870269705    3.41595385471372   21.15341672208479
H        16.20221359684682    4.68277003436595   20.35548899780986
C        14.88498896757418    3.56956763501762   19.03936145405294
H        15.32787056766297    4.15741154803047   18.23210871327456
H        15.34504304938181    2.57841424222183   19.00610156805294
C        13.40581595393065    3.42002845592781   18.76709784634113
H        13.04186941567822    2.39538541649012   18.75102429092665
C        12.63987663949200    4.37834169224615   18.16249066126120
H        11.72259355574315    4.05009173110786   17.67143664947750
C        13.12944593501859    5.73202075770231   17.69434639286976
H        12.25665914579439    6.35458990295659   17.47856057859286
H        13.66862074474926    5.59687045912328   16.74719682820799
C        14.03117381988800    6.48595649148693   18.69237955372324
H        15.07657459934937    6.21660412740272   18.53097765189684
H        13.93679859992997    7.55778483603045   18.50064336768221
C        10.72230999110364    0.96643958784214   22.18691248803671
C        10.02324508740576    1.03097563091838   23.40016394847364
C         9.30327859736982   -0.08041000599776   23.80998954084492
H         8.75052870396287   -0.03470060611038   24.73720778888172
C         9.26934616221949   -1.22642513284595   23.03266147450820
H         8.69725452806771   -2.08187571976045   23.36046991918941
C         9.95533414553393   -1.27556126264402   21.83074895493534
H         9.91072115082348   -2.16204365004481   21.21481768134068
C        10.68995787334276   -0.18527582409034   21.38917803099397
C        10.04163221839231    2.28206375776704   24.19161027942560
C         9.31922612019295    3.39046821398578   23.75068260726016
C         9.34271616628891    4.55379838862994   24.50740946790797
H         8.77408171431589    5.40864038660239   24.16863138151172
C        10.07484610870485    4.64140739634667   25.67920242873442
C        10.79581553029235    3.52986666696664   26.09609003414319
H        11.37673718250195    3.58797143201924   27.00636332654418
C        10.78924251930256    2.35136716465780   25.36944002685771
C         8.53126913347531    3.35152039304949   22.47682553932824
H         7.68925073022228    4.03492365532497   22.52891752144346
H         8.16040584760221    2.35106896159820   22.26518319748484
H         9.16245776505190    3.66392250858336   21.64186600763584
C        10.10610846417369    5.90526352447063   26.48536063477161
H         9.84182893350285    5.70439247949476   27.52270159288828
H         9.41273797058859    6.63994788718576   26.08358125528719
H        11.10871092423992    6.33257253233930   26.47468972153360
C        11.58943565179557    1.16830673301605   25.83009222306981
H        12.23605215392946    1.44285080149088   26.65994531855647
H        12.20551686612529    0.78337988128357   25.01847150331938
H        10.93350166290286    0.36230449225272   26.15759174046823
C        11.41550982680497   -0.21605034590209   20.09864571239368
C        10.95273105606701    0.52710740869075   19.01026878084161
C        11.64529888838321    0.46120364349159   17.81002709219874
H        11.28768662116660    1.03468688791973   16.96580120939798
C        12.79155344370581   -0.30756373497153   17.66997831953035
C        13.24471705536981   -1.02347474850700   18.76714111961265
H        14.14406932012441   -1.61764357749181   18.68012311241170
C        12.57152956319567   -0.99002569476957   19.97895663744722
C         9.75106399964013    1.41607512359962   19.11460488393474
H        10.06685041473756    2.42790576737327   19.38946681010083
H         9.05156536129850    1.06484044988713   19.86902729604341
H         9.23765228915986    1.47887023549807   18.15856893829988
C        13.52583849303849   -0.33408768463803   16.36331144309402
H        12.85619708419473   -0.62563408492574   15.55523384382907
H        14.35756716899554   -1.03346764870153   16.39654153510295
H        13.91488152544138    0.65751749264826   16.13156259631750
C        13.09682827212622   -1.76281827191394   21.15353056620852
H        14.11146864533869   -2.10450763648616   20.96293843115604
H        12.47449165438899   -2.63541419820963   21.35038185278049
H        13.09648856823952   -1.14714769055084   22.05175672205808
C         9.06482174852904    7.45963270558509   20.06744251904595
C         7.74292544743975    7.22571148579812   19.66070627657529
C         6.88354062157809    8.30782509145600   19.54374729121288
H         5.87004589198941    8.13682331120611   19.21127361005237
C         7.31470434111092    9.59093566752785   19.83432348324186
H         6.63251857305226   10.42283656715344   19.74096432528305
C         8.61885887393738    9.80975734870402   20.24454229877006
H         8.95495694336824   10.80843341941966   20.48367454866375
C         9.51162183489328    8.75521787485476   20.36219067550548
C         7.28276875613854    5.84818207678845   19.37522068467417
C         6.39970781636960    5.22434556407293   20.26088822121961
C         5.98288590449892    3.93038009510711   19.99912048867553
H         5.30566792075582    3.44265256813879   20.68657661831274
C         6.41659735464264    3.24270939304149   18.87351621552285
C         7.28027742714524    3.88238617695434   18.00065574369741
H         7.61881015163429    3.36756966743079   17.11226244801399
C         7.72345792421366    5.17630653133647   18.23540704817912
C         5.91236094193460    5.94230439946272   21.48640182645682
H         6.73427086446623    6.44214771284205   21.99717838802020
H         5.43792284109888    5.24659673486342   22.17501924345307
H         5.17991400469817    6.70348072833719   21.21853536339144
C         5.94528498328467    1.84269651527572   18.62043349367502
H         6.37532545862911    1.44447502289634   17.70505486914175
H         4.85950715094829    1.81686777549450   18.53382807557102
H         6.22800261434480    1.19297211678246   19.44776800223326
C         8.66123904420030    5.82962440381905   17.26386974055193
H         9.69217135972052    5.67924822090139   17.58628808751563
H         8.47826232557630    6.90081097766929   17.19786359392087
H         8.55127046431799    5.39198334619108   16.27404157504899
C        10.91177048275093    8.99474819180031   20.78125627056353
C        11.80827436249772    9.56453498270603   19.87406360977857
C        13.10765337666090    9.82374444771248   20.27985153755946
H        13.80301576005202   10.26551753658157   19.57910347271087
C        13.53743913267867    9.52281665343837   21.56503565185889
C        12.63735683090923    8.94222314722538   22.44571639526600
H        12.96148197607096    8.68782735743385   23.44509501829602
C        11.32931986957325    8.66851830664529   22.07191673942004
C        11.37572350659036    9.86708374045520   18.46932534484518
H        10.90632314224630    8.99342637919484   18.01803614656724
H        12.22777607655967   10.15989930665235   17.86016647067525
H        10.64739275683102   10.67718434692174   18.45319070250564
C        14.95611963032055    9.77604270275101   21.97517789798705
H        15.56564328785159    8.89973726344707   21.74973495775420
H        15.02352900873456    9.96728782221528   23.04371051866012
H        15.37187107247870   10.62457195072229   21.43636711869699
C        10.39810837963500    8.00641450185826   23.04217512600619
H         9.37465022620295    8.35277012684272   22.90753701138055
H        10.70784039287592    8.20515519997932   24.06541062020866
H        10.41922091584862    6.92585127989948   22.88929876054797
N        11.43167353000292    2.03844133506864   21.77303921143801
N         9.92817798161150    6.42480688665625   20.16532253940406
Ni       12.15811728356903    4.43339169128138   20.23975700230312

