156
CSD_code = SUNGOY | q = 0 | S = 0 | Stoichiometry = C76H75N3NiO | MND = 4
Ni       -3.40255851254426   -2.58263078342791  -14.82128206833537
O        -6.12181807427429   -2.97730430191518  -15.79686054704935
C        -3.21196075055758   -0.92904480153034  -14.02891795469281
N        -3.12175780416904    0.14887940960168  -13.57908140775762
N        -1.62187608385902   -3.32239536565911  -17.09978727258474
C        -2.28014978438925   -2.79735358867740  -16.28626545369787
N        -2.70933028727835   -4.58583991227576  -12.68970956878334
C        -2.90223416380059   -3.85760155298783  -13.58792867220520
C        -5.06035860534591   -2.85127393079680  -15.38690552728726
C         1.07654540382724   -4.98557731353022  -18.89056132204854
H         2.15619248168803   -4.99768854845049  -18.91656036986070
C         0.34929489623506   -5.82812873503897  -19.71230504404908
H         0.86278791092360   -6.49923672855510  -20.38482893520111
C        -3.19071051514355   -4.92899926316652  -18.77229141499457
C        -3.88208774583771   -4.28983586978370  -19.80352084061574
C        -5.26573977885633   -4.23840663402830  -19.75855958777017
H        -5.80037770987792   -3.73794052473197  -20.55449656908052
C        -5.97792982337050   -4.80997661014597  -18.71434092804754
C        -5.27511988719837   -5.45158736913579  -17.70644196873951
H        -5.81150037970468   -5.90031202810095  -16.88228061645843
C        -3.88980691538521   -5.52043653991297  -17.71943179906953
C        -3.14338620877717   -3.67380190643607  -20.95619577312278
H        -2.25266186862314   -3.14872665952076  -20.61720332183222
H        -3.78288500250943   -2.97394169024486  -21.48928239896549
H        -2.82656113475937   -4.44511644361156  -21.65904240474945
C        -7.47245269847113   -4.71494551542256  -18.66647604727801
H        -7.90543215606191   -5.61708269765837  -18.24001749524970
H        -7.88621669200856   -4.55829037077774  -19.66025103972698
H        -7.76525942493815   -3.87134956513043  -18.04076255046574
C        -3.17779742354042   -6.22464492504531  -16.60345383046559
H        -3.78320046063223   -7.04589136798400  -16.22687789962781
H        -3.01480227081729   -5.52942451481232  -15.77686618730532
H        -2.21172530016492   -6.61052269640287  -16.92375741436713
C         0.47908093947245   -4.51884004870303  -15.09271796294784
H         0.31663353457504   -5.35297889146895  -15.77219680677040
H        -0.49283778547967   -4.15913899634797  -14.75093848578436
H         1.02029921567894   -4.87280846475665  -14.21772016012044
C         3.55321933244823   -0.61995778089170  -14.63324817025692
H         3.81166612255684    0.30217330903073  -15.14921276833359
H         4.48006161060726   -1.12142673495372  -14.35230600886436
H         3.01454769431652   -0.37586558042391  -13.72017622891541
C         2.01271192665061   -1.95501433663157  -19.19228455535121
H         1.16497360105984   -2.41287358330627  -19.69597113607915
H         2.92425470843191   -2.37703088331629  -19.61720660495388
H         2.01191984333334   -0.88701381791766  -19.40336234096403
C         1.22507896683655   -3.22070955847796  -17.13816143012001
C         1.23353602263369   -3.40427045706364  -15.75198518792637
C         1.97694148000989   -2.54307199719506  -14.96012443834958
H         1.96247693198486   -2.68328017232520  -13.88945088320764
C         2.72996189297162   -1.51616239921635  -15.50950614529587
C         2.72203500549862   -1.35681147038306  -16.88609406380993
H         3.30122246410797   -0.56140076901185  -17.33546560902557
C         1.97856534587993   -2.19146701137439  -17.70899008184186
C        -4.01164690167340   -6.95983749650254  -10.28174414324228
H        -4.92640215604893   -7.50102052521621  -10.08768149503726
C        -2.92904301465121   -7.08335892535434   -9.42646695720107
H        -2.99778249063198   -7.72653981179800   -8.56158125435270
C        -1.76162342757705   -6.38315235989786   -9.67325792137096
H        -0.92206507207217   -6.47185717545176   -8.99924787304010
C        -1.65360247773832   -5.54046536013659  -10.77232998129655
C        -2.75856148957434   -5.41540852602223  -11.61955981956518
C        -3.94410204184710   -6.12702081009698  -11.38734278728967
C        -5.08789290687017   -5.97341796913870  -12.31545810082152
C        -5.33572756019852   -6.96573142130548  -13.26490870819036
C        -6.40984693294337   -6.82129855465872  -14.12903727796281
H        -6.60354679056308   -7.59359861020758  -14.86182880952734
C        -7.23940878637068   -5.71180098668785  -14.06983312818266
C        -6.96748975618047   -4.73046443335663  -13.12803978326344
H        -7.59997774304175   -3.85486674636431  -13.07953643073914
C        -5.90007882220260   -4.84037495348952  -12.25091053839480
C         0.74835108542689   -5.48745696170614  -11.40168480029898
C         1.94375079415209   -4.80086276618867  -11.53573935188999
H         2.83440692173953   -5.34048600157193  -11.82810121768707
C         2.02536426469759   -3.43546347423363  -11.29462685028194
C         0.86800368672965   -2.75552149149315  -10.95165893065843
H         0.90846613239677   -1.68854380175768  -10.78028446128759
C        -0.34703213170191   -3.41192122365459  -10.80611647862110
C        -0.39961117451834   -4.79095422990592  -11.01209476309816
C         0.69084456210026   -6.96064743507186  -11.68396498293422
H         1.57717398008434   -7.27944598433016  -12.22778112732744
H        -0.19022432288693   -7.20673246753349  -12.27468377877291
H         0.63842037679500   -7.53055502116323  -10.75670220697957
C         3.34690723675447   -2.73140251482997  -11.37614426216683
H         3.91694141446398   -3.07080563005967  -12.23906593482045
H         3.93501457292043   -2.94674607985915  -10.48313628504889
H         3.21278725749102   -1.65432262516071  -11.44111776228879
C        -1.56669695119912   -2.63059070660055  -10.42120069091484
H        -1.28872481331477   -1.74218015661478   -9.86127545245942
H        -2.25112528557316   -3.22521570798526   -9.81953760623475
H        -2.10201469939649   -2.30342462681610  -11.31417538188780
C        -5.62969306713969   -3.74140617560411  -11.26659987263482
H        -5.14284062329426   -4.11746446742774  -10.36882735009987
H        -6.55691709027637   -3.24636925156655  -10.98687433011885
H        -4.97678473241923   -2.99160245659652  -11.71825393108110
C        -8.40183186627370   -5.55507367280623  -15.00164007350658
H        -8.25691698496799   -4.67728712401986  -15.62948127283129
H        -9.32456744383078   -5.41433702020050  -14.43972366792761
H        -8.51360510197685   -6.42803602711594  -15.64072357723758
C        -4.43709613029303   -8.16447921172467  -13.35767977240335
H        -3.40622428790218   -7.85532852910326  -13.53181240782943
H        -4.74642517366282   -8.81509046042374  -14.17239878668558
H        -4.45792086437656   -8.73803638762193  -12.43165409355280
C        -1.03478276982317   -5.81208697051051  -19.67571452354586
H        -1.60569737361875   -6.47013225387272  -20.31428659301782
C        -1.71026537797138   -4.96477948082029  -18.81040555019980
C        -0.96247661055355   -4.12470261738124  -17.97201704791485
C         0.43800923907557   -4.12179174950086  -18.00951059744647
C        -0.87802977753505    0.18751447644609  -17.06166884825123
H        -0.00760521196726   -0.44107574217978  -17.18466926325393
C        -1.06039914021323    0.84655822198439  -15.85474335897310
C        -2.18974914473138    1.64474115444503  -15.68078181894882
C        -2.28507035673496    3.62913967755073  -14.12505338751284
H        -1.90197913872978    4.26112757021265  -14.91309052262752
C        -3.12538482007320    1.77747648582598  -16.70964682982444
C        -2.91294141605753    1.10694629716321  -17.90187137420062
H        -3.64172990943176    1.19700596087613  -18.69567129591905
C        -1.79876650999304    0.30061571053774  -18.08997305532327
C        -3.75938786905210    1.10582834252447  -11.00282418772483
C        -5.05578278459881    0.59297201369939  -11.06919926165641
C        -5.49984213842597   -0.24702508195729  -10.05923656019107
H        -6.50416116488020   -0.64349598949050  -10.10998186559413
C        -4.68731731026496   -0.58865188078436   -8.98921990911175
C        -3.40343108008699   -0.06613900846008   -8.93939373583414
H        -2.75990365192956   -0.32273327976821   -8.10891271025494
C        -2.92520554479522    0.77248990464821   -9.93374158615900
C        -2.94622396170619    1.46924753955957  -13.33105603361177
C        -3.25405909645648    1.99477613038432  -12.07354754261805
C        -3.07314240473083    3.35595405903391  -11.86931972804839
H        -3.32570320365640    3.78050080055372  -10.90844853181365
C        -2.59104117332305    4.16490179184696  -12.88395153348180
H        -2.45503681999566    5.22184108497332  -12.70787161949595
C        -5.96392853574177    0.92889755208401  -12.21486516055448
H        -5.79730325237004    1.94585838675042  -12.56623585855440
H        -7.00548445547757    0.82462312385404  -11.91929524769239
H        -5.78189999979982    0.24813280369023  -13.04805028988657
C        -5.19498648725822   -1.48588447857159   -7.90134976924085
H        -4.37189740214011   -1.97233760449892   -7.38294757669123
H        -5.85638827982862   -2.24808945144828   -8.30737193169850
H        -5.75980722276978   -0.90539514511101   -7.17088231984099
C        -1.51746725912686    1.29081147570162   -9.87915741566687
H        -0.98968651313515    1.05663763126025  -10.80362724408862
H        -0.97754250680834    0.84856651024693   -9.04478049112538
H        -1.50540021821263    2.37314320919203   -9.75826081607628
C        -0.05739571400817    0.66176525234882  -14.75537189454986
H        -0.05701448221495    1.50545372076970  -14.06735907331101
H         0.93846459755105    0.54049020250598  -15.17351837979376
H        -0.29172373712220   -0.24461266310901  -14.19443912587462
C        -4.36310600087017    2.60138038565262  -16.50665664304054
H        -4.94393764364071    2.21261962242259  -15.66995203546353
H        -4.98620418521808    2.58129510102511  -17.39731973418495
H        -4.11118356012665    3.63698119737516  -16.28154523403087
C        -1.59813600258687   -0.42444763753374  -19.38565612240047
H        -2.55361159900248   -0.74062763852935  -19.79853492133895
H        -0.96710656473999   -1.29755933129235  -19.23933400105651
H        -1.11348867859063    0.22789767750795  -20.11365518631068
C        -2.46151102839783    2.27736027653762  -14.37013488358242

