49
CSD_code = SUNLUJ | q = 1 | S = 0 | Stoichiometry = C25H16CoN4O3(1+) | MND = 6
Co       -3.08148530121935    6.42514432284409    3.84086496085225
O        -2.67502145010728    5.67036555097002    5.45090370587821
O        -1.59178785974651    5.38964688484870    3.65614793547789
O        -0.85729533148889    4.33274128346224    5.51084623445507
N        -4.07413211575247    4.89207399161655    3.34239160328103
N        -3.22412460500015    6.93707725047401    1.96437675082423
N        -2.02299072152746    7.89563544826032    4.39170362248240
N        -4.59715577840084    7.48050305811680    4.46974546107866
C        -1.62198277508636    5.05005296884893    4.93732170303910
C        -4.46434071645527    3.87443888144457    4.08837555317569
H        -4.35433606080923    3.98316377048093    5.15914049921705
C        -4.97516812140950    2.69791984822244    3.53156970257003
H        -5.26926975166490    1.89490909020009    4.18820816568285
C        -5.08224595846753    2.57058316214943    2.16554733211548
H        -5.46064697045001    1.66472520250927    1.71691889136793
C        -4.67491202860466    3.64094638076851    1.35030951412337
C        -4.17139505456672    4.78307762193948    2.00106741810201
C        -3.70860017951895    5.89770238929945    1.24959809064663
C        -3.75641897959410    5.86653738209021   -0.15820003804813
C        -4.28162234609100    4.70353419110002   -0.79567681179153
H        -4.31460269736869    4.68786742602408   -1.87435445222610
C        -4.71970796102867    3.63982238517403   -0.07560948328580
H        -5.10720283580031    2.76271266112616   -0.57065583597177
C        -3.26409858054464    6.99272394119009   -0.83801015890156
H        -3.26977642413658    7.01899682966698   -1.91703336367442
C        -2.77400542725521    8.04707629360132   -0.10129268109549
H        -2.38528938520097    8.92761694659322   -0.58727875384254
C        -2.76979241396139    7.98190907603253    1.29422711942325
H        -2.38530198451414    8.81112875256541    1.87177934259699
C        -0.71168415700497    8.04395145597426    4.33810706289252
H        -0.16102032175810    7.31495630387954    3.75869231363558
C        -0.05245482170858    9.07591437446695    5.01303195916596
H         1.02123866694244    9.14324088309307    4.94185732150031
C        -0.76990951756306    9.97646021971487    5.76656275555981
H        -0.27739666151947   10.77075479666290    6.30643110210648
C        -2.16731045280249    9.84108570187429    5.83697366695805
C        -2.74137920390220    8.77041293594365    5.12599227445320
C        -4.14459919742763    8.54538261028732    5.16749995185590
C        -4.97328687053904    9.40200897873731    5.91891126881732
C        -4.37055868629265   10.48594215854114    6.62350047484341
H        -5.01205571786177   11.13572965306968    7.19886584555791
C        -3.03016809222905   10.69527420281321    6.58588212346703
H        -2.58599832509335   11.51376931140188    7.13112100307345
C        -6.34782615424093    9.11321221504415    5.92815054327097
H        -7.02735494056701    9.73356268658741    6.49223928073031
C        -6.79975775484421    8.02874830631241    5.21124380752467
H        -7.84751784612511    7.77482314615900    5.19471400617140
C        -5.89609459462577    7.23734249489372    4.49803628516300
H        -6.25205553506436    6.38509457292372    3.93605492569963

