52
CSD_code = SUNMUL | q = 1 | S = 0 | Stoichiometry = C16H32ClP2Ru(1+) | MND = 9
Ru       -0.99180661346713    1.22518402544149    3.88767637152591
Cl        0.31676100270839    2.44519268810668    5.41261904567158
P         0.63008140407968   -0.41460024717837    4.04279232619250
P         0.19251804054504    2.60163596418890    2.45861624641939
C        -2.77405935798060    1.43554255695042    5.38157750780276
C        -2.89580630281434    2.39142174732752    4.33805348993835
H        -3.04931342002724    3.43431020296622    4.59603218617875
C        -2.95192688554234    1.99228516796091    2.99365921280194
H        -3.17377098195875    2.72823561910100    2.22626257016311
C        -2.84155046784796    0.62847085959420    2.62427583414747
C        -2.64531473345815   -0.30696558867243    3.66051471702428
H        -2.63785920406708   -1.36462116741931    3.41247249937102
C        -2.65076586670035    0.08585743075975    5.02286816233972
H        -2.63483002585917   -0.67773488593762    5.79014803000490
C        -2.88261483283000    1.87991723677989    6.81733269080300
H        -2.54382511227022    2.92033634151112    6.87711095369703
C        -4.36246096586611    1.82436082977098    7.21908520333135
H        -4.96873857394931    2.45333677448870    6.57037107369074
H        -4.47584316477578    2.17444179128683    8.24108541528602
H        -4.73676926717587    0.80400806588109    7.16064826608853
C        -2.02669762126386    1.05025923979210    7.77351340698676
H        -2.41756025955247    0.04190238053245    7.89126643113418
H        -2.02166927425203    1.52095027224868    8.75252001497481
H        -0.99879354735813    1.00194553446648    7.41658687332120
C        -3.08148934149005    0.17189479680654    1.21709725877770
H        -2.92427321263525    0.97404764005002    0.50099962493686
H        -4.11645876257561   -0.16218084416902    1.12391195439085
H        -2.43745239975972   -0.66549310126837    0.95622235015476
C         2.25783212899750   -0.06360424531969    4.78082712961982
H         2.78701876436405    0.69965470267833    4.21797131940948
H         2.84135791859473   -0.98418308662499    4.79652474957595
H         2.10791375273089    0.29963431570935    5.79663619053621
C         1.05703321426858   -1.24109623862197    2.46871319941514
H         0.15334077953381   -1.63571394668377    2.00754727831702
H         1.75234949894673   -2.05754616220595    2.65714833968448
H         1.51396967081216   -0.52286115952656    1.79049633731914
C         0.10920728305662   -1.81783916225116    5.09211785431969
H        -0.09957429033139   -1.45174534038864    6.09696778629615
H         0.92424029934833   -2.53974843985287    5.14037088196725
H        -0.77476830753763   -2.30667998959820    4.68904101394079
C         2.01013852464708    2.70992491090901    2.51361806843368
H         2.32000908067981    2.93836935987700    3.53231993718323
H         2.32779367305251    3.51175299858473    1.84668311807121
H         2.45504138485115    1.77189342691459    2.18602828297941
C        -0.27371644693501    4.34782319851942    2.69794025157209
H        -1.34282333215032    4.48787750107838    2.54793273254118
H         0.27321180345809    4.96383575406513    1.98439090453852
H        -0.00915792890627    4.64147556749174    3.71343822096378
C        -0.11699354875489    2.34362701948462    0.67368866505026
H         0.08279115644607    1.30821965268842    0.40566296272977
H         0.53444907866817    2.99865395103999    0.09745263536406
H        -1.15187440969493    2.57923408065662    0.43796242303108

