113
CSD_code = SUNNUL | q = -1 | S = 0 | Stoichiometry = C48H36LaN16O12(1-) | MND = 8
La        5.97554254582796    1.86679289882728   21.56388513061144
O         3.92350660732544    1.83340532745226   20.38980715398196
O         7.23573510395598    0.36288911738887   22.88217516346793
O         5.53453150953650    6.28629867372357   15.35128122356381
O         6.98185555346207    2.12683269177707   19.43909013021527
O         5.49881495201906   -2.07817672513741   28.08679158328001
O         5.75988581068384    3.14061065535916   23.54227326672627
N         5.99475898482259   -0.54367965088318   20.80547729689861
N         3.15563011997234    0.21910890679935   21.79236042273235
N         8.47284224301569    3.58747910239628   20.33721053847748
N         4.07020945103795    0.61665542440553   22.66327913039330
N         5.61828000043544    4.35057395599013   21.26455340035768
N         8.21290595261235    3.04439796238721   21.51652693945740
N         6.89432354502086   -0.88733605279292   22.78200594072009
N         3.11777878689183    0.86071717475496   20.69690418939635
N         7.85050718085687    3.08945209391675   19.34841135684290
N         6.03425996181806    4.40544468044339   23.42264175850070
N         6.27093656382107   -1.38210453325867   21.79217128412308
N         5.99437814946349    5.04609812189563   22.32661440395386
O         2.57220192927659   -1.71088019343522   15.74184722999725
O        10.67331539382709    6.74256133125145   25.90196385693638
C         8.79876179730710    3.68043543790099   22.57233498784544
N         2.62735422868144   -2.36096113978159   16.77706202979578
C         2.15053864802269    0.46927941900101   19.76026430771649
C         5.21309341907221   -1.06976730979032   19.81810190210213
C         5.12419756703483   -0.35982682516270   18.60273996853619
H         5.72000468676814    0.53452352343991   18.49772581905525
C         7.21057072987374   -1.75623146549573   23.83605681875938
C         5.70539699346050    5.02940279972241   20.08383442965652
O         1.93668327560700   -3.35078176259880   16.98263091770067
N        10.28848691706211    5.58444099914128   26.00117601387652
C         0.39782839111434   -1.00486977793543   19.05945347446535
H        -0.24532601754190   -1.85067722493534   19.24896348652544
C         8.11611111187848    3.63728777993338   18.08520590617191
C         0.31598564362345   -0.33292724124148   17.84871465411998
H        -0.38687442296491   -0.65821396730278   17.09743535634236
C         9.81909012234614    4.93140561301759   24.84218376033310
C         1.14871557237228    0.74581344122294   17.59943474605500
H         1.09192816013708    1.26457181913617   16.65508012109163
N         4.86173180988309   -2.55382797852403   27.15671211409435
C         4.17365446368064   -0.17071662765447   23.77321181907492
C         4.89154324769549    0.33859530799639   24.87513104215181
H         5.27681335245343    1.34478819304499   24.80313625664063
O        10.28602353823964    4.96950598980720   27.05906988458439
C         6.80665078544758   -3.08862661736786   23.80116785222867
H         6.27373308974204   -3.45810698359166   22.94105147349398
C         1.30969321108694   -0.61037843230157   20.01890280315403
H         1.38564697183385   -1.12710061533114   20.96100672136789
C         5.05774303640666    4.47617159467110   18.95960559766868
H         4.48265876723111    3.57389136315640   19.10386742275206
C         4.45542664934582   -2.25067922403438   19.97224148792409
H         4.53159099784972   -2.79538543019358   20.90027311368654
C         2.06699217563963    1.14959245659942   18.54962678816456
H         2.73069867666259    1.98000814025726   18.37027197382201
C         6.41968431613666    5.11950462033561   24.56613470067349
C         3.61689148819905   -2.67341394844015   18.97540629208719
H         3.01379120785835   -3.56160340822262   19.08792169280192
C         5.09837284575461   -0.43241189158071   25.98763525000569
H         5.64798075069241   -0.05920659690716   26.83818839907836
C         3.52290241365061   -1.94598623025764   17.78506750682216
C         7.90042962113377   -1.26059402803300   24.93777316782726
H         8.19959627448819   -0.22485771363054   24.94398360286010
C         7.77197101709755   -3.41921738401237   25.97659687577594
H         7.97390030140246   -4.06379804766712   26.81800513895228
C         8.82549981368378    3.00785953793133   23.81166046262513
H         8.42713662726669    2.00487357119890   23.84862090027399
O         6.81934668491552    7.79191263766673   16.19713665321387
C         9.81961714173099    5.60352222428745   23.61608805397025
H        10.20708380021179    6.61037971205733   23.57817320687573
C         4.29516156028432   -0.79267723140144   17.60267037892594
H         4.21297328068708   -0.25942054263674   16.66798143245362
C         7.69567093445418    3.66459590919073   15.72472594114699
H         7.18998026905173    3.26192290931916   14.86089370553488
O         4.44505926603479   -3.70513866467807   27.15132465064395
C         9.32981062251850    3.62247705050413   24.92649303176787
H         9.35514815412228    3.12322660528420   25.88299034704232
N         6.10586719485361    6.80255155190093   16.30239472958928
C         4.60031707016594   -1.73991497722850   26.03448045262392
C         5.94260416765106    6.22552064165182   17.57933961632181
C         8.17913500180776   -2.09531953173165   26.00303418504167
H         8.70278478167007   -1.70884106462606   26.86359217191277
C         7.08980921358625   -3.91147549056786   24.87365938854299
H         6.76532011613807   -4.94075955235362   24.85808747265678
C         7.47642268937418    3.10654651436963   16.96956308677376
H         6.80989478961461    2.26900136643905   17.09880786651846
C         6.57241423859161    6.79874216794944   18.68835262819898
H         7.15565671427274    7.69598458493023   18.54550415120530
C         9.32815805690564    4.98678341924286   22.49656556998720
H         9.31236287597848    5.49575069443362   21.54555557935704
C         6.79208623104033    6.45826570806120   24.47351909676772
H         6.75259033720522    6.95408039292979   23.51803232192244
C         6.44903825009459    6.21839095981024   19.92263107015414
H         6.93791987429876    6.64279281703012   20.78552502714149
C         5.17266888353061    5.06603287733891   17.72929305981354
H         4.68489123808869    4.65460094324891   16.85903293904138
C         3.86675179767094   -2.25112524542025   24.95954924711312
H         3.48977105198167   -3.26060595843318   25.02388022613109
C         3.64634832517177   -1.47775443143006   23.85107194323487
H         3.09084168189655   -1.86119936480586   23.00956407979495
C         9.18597990529519    5.27325836673356   16.70105718588348
H         9.84216391667802    6.12324412036429   16.59361965396888
C         8.54554709097307    4.75023183530945   15.58712124340783
H         8.70067306343937    5.19554931117617   14.61665278579694
C         8.97828693269222    4.72289996927518   17.95065557366813
H         9.46706495438401    5.12257874471470   18.82332342071057
C         6.46387862739464    4.46195346821735   25.79133605522079
H         6.17478454920740    3.42438561039004   25.83787629460541
C         7.21343414953797    7.12510498149869   25.60724374942622
H         7.51823641600488    8.15814869101490   25.53766998527537
C         6.88511629923387    5.14161619767252   26.91814114336488
H         6.93172533487669    4.62915992703930   27.86650355534081
C         7.26459343988021    6.47102189794503   26.82942466684954
H         7.61150439810171    6.99387254285113   27.70722093813569

