97
CSD_code = SUNTOM | q = 0 | S = 0 | Stoichiometry = C38H55ClN2Ti | MND = 9
Ti       -9.53692136233314    9.13666418517970    4.05006736778134
Cl       -9.03161452636437   11.32727255508714    4.61390560334870
N        -8.32807708935933    9.30371887726870    2.65768667048860
N        -7.94280513951205    8.06001147373808    5.11165229333436
C        -8.85765189384500    8.05252286948084    2.48370095879690
H        -9.33220882521691    7.81489616289014    1.52216302409027
C        -8.08580709989391    6.84111242853342    3.05445522375128
H        -8.83353351766796    6.07185240760508    3.29326797593237
C        -7.36293529690347    7.27315452116762    4.29286384883354
C        -5.95030569159350    6.74917662847835    4.21338488038808
H        -5.20614985982424    7.52006610851022    4.41907285683841
H        -5.79354639359540    5.92907816308364    4.92177642726505
C        -5.83791284283991    6.21666830748284    2.80520226080099
C        -7.01258713813188    6.23585312726574    2.17970632055180
C        -7.36094425430005    5.71499836399373    0.82683826133593
H        -6.52648925696980    5.18144185410323    0.37963083174033
H        -7.64468686927860    6.52865780464207    0.16106772378351
H        -8.20992002975425    5.03429627197235    0.90205907189588
C        -4.51088009296329    5.72932299043838    2.32840598433615
H        -4.57062477615055    5.33575889018652    1.31816131989509
H        -4.13660367139637    4.94454767361839    2.98664060482514
H        -3.78551753460085    6.54357312809773    2.33772735870461
C        -7.87209764002279   10.20323358175940    1.61824621510235
C        -6.72523905936612   11.06209398456471    2.17870364649268
H        -5.91422224817719   10.40054457548760    2.49728088878163
H        -7.08410912689181   11.60522787243741    3.05325016250373
C        -6.23136048889696   12.04409396211990    1.12005196038279
H        -5.42226859020116   12.65198882666714    1.54108425650197
C        -5.71180092236687   11.27304828738718   -0.09162487912048
H        -4.87845991137844   10.63117187811607    0.20435097389692
H        -5.34683667393421   11.96785667290445   -0.85200027337929
C        -6.84393321823396   10.42405599978546   -0.66446256534580
H        -6.47596851737042    9.85994891745506   -1.53084049268527
C        -7.34600480680217    9.44129496578259    0.39244927309308
H        -8.14839823658355    8.83824780828079   -0.03915855691122
H        -6.54023489118942    8.77168820154439    0.70485900065705
C        -9.01824379994266   11.12642947785279    1.16501373366018
H        -9.40234096059918   11.66646166519539    2.03544014984738
H        -9.82530303228706   10.51198621733521    0.75351113687901
C        -8.51112964851961   12.10793120647706    0.11035217660290
H        -9.33425729382482   12.76219061745740   -0.20096529121321
C        -7.99119456845248   11.33443042563941   -1.10108821995079
H        -7.64106293354230   12.03100589304231   -1.86662419444190
H        -8.79670788433610   10.73731096718518   -1.53633416283362
C        -7.38365852127943   12.95464887927043    0.69875866241493
H        -7.75146351658388   13.50466099899398    1.56683594784796
H        -7.03659544313583   13.67956567632988   -0.04180895460309
C        -7.31769831300911    8.59257688698086    6.33002179054485
C        -6.33171906256121    9.71425618008537    5.96704023545829
H        -5.50569174515713    9.31886213650455    5.37247356409505
H        -6.85223553972746   10.46265137504038    5.36458732149776
C        -5.78618675695695   10.35138607067772    7.24408495443792
H        -5.07894470267262   11.14149295167540    6.97011186134577
C        -5.06964728640881    9.29388620017263    8.08377792437405
H        -4.66217319235133    9.75013066403361    8.98836555805631
H        -4.23477877639734    8.87013112495762    7.51972398308919
C        -6.05852910545628    8.19174149107417    8.46257914387200
H        -5.54336898751761    7.42619025502594    9.05533302995923
C        -6.60203173772441    7.53745011951781    7.18812689192831
H        -7.30268684256526    6.73670804263982    7.44302387875357
H        -5.76126678247484    7.09672983576248    6.65694099085993
C        -8.45488001098242    9.18080801672510    7.17574664129627
H        -8.98684627629333    9.92130518259944    6.57481976810094
H        -9.14000257742464    8.37642109029807    7.45403702990122
C        -7.90941040676666    9.84403438731705    8.43744144370669
H        -8.74179530466267   10.27147194124052    9.00736737485170
C        -7.19377149255496    8.79458426994976    9.28465532670260
H        -7.89517086089591    8.01206590881230    9.58520143883306
H        -6.79243813375492    9.25005479314472   10.19243015054150
C        -6.93893112158622   10.95453924707321    8.04309795847840
H        -6.55608490399381   11.45410009007781    8.93566085059679
H        -7.45825705687481   11.69356210737951    7.43064435638063
C       -11.67138914618128    8.95818762504999    3.05313992888544
C       -11.72910848073651   10.00501516088412    3.99915421118785
C       -11.46748090143086    9.45705401812200    5.29058894473592
C       -11.24581710171404    8.06534905377388    5.13951554345705
C       -11.35861537160368    7.75369844767371    3.75546284515924
C       -12.13264648269695    9.01671087033566    1.62506961192831
H       -13.15893388757253    8.64420735666715    1.55680696127433
H       -11.51437758416254    8.39809540705151    0.97357644554263
H       -12.12262465141373   10.03772766043203    1.24702920176904
C       -12.18703210538172   11.41252893616374    3.75106748806441
H       -13.24454794716150   11.50968420299178    4.01311262428027
H       -12.06807631307378   11.68882549535092    2.70384824375564
H       -11.62132114528240   12.11947972380152    4.35732959295984
C       -11.67095903767006   10.23314268010178    6.56052812380030
H       -12.72209171649353   10.52114919376055    6.64658287041737
H       -11.07793129364106   11.14967683129400    6.56054578750654
H       -11.40787281565292    9.64966411441983    7.44085379359656
C       -11.15651008767193    7.02159596373287    6.22010817896130
H       -11.97839687073925    6.30953375088873    6.11088939500516
H       -11.24207765522577    7.47036827500113    7.20824662090863
H       -10.21953565091717    6.45906789850464    6.17163114866403
C       -11.52256408054566    6.36931801239314    3.19775140693607
H       -12.58444293139262    6.10487961808753    3.19136697433756
H       -11.00278471641376    5.62972872405976    3.80583223290708
H       -11.16149995212550    6.29850825884782    2.17275089340817

