60
CSD_code = SUNWEF | q = 0 | S = 0 | Stoichiometry = C28H21ClN5O4Rh | MND = 6
C         8.46917170979884    5.02899414519599    9.19631215951535
C         7.59351553323983    6.10028582039645    9.41450196004342
C         6.32199255862261    7.80813743006491    8.98460157976741
C         5.59349269703547    8.82097009369810    8.37152539033864
H         5.57751973138435    8.90974794036706    7.29606952977132
C         4.91891692232459    9.71061161348755    9.18368164337371
H         4.34954867096573   10.50891829538199    8.73122253365822
C         4.95727297723238    9.60749812341245   10.57588670257471
H         4.41358987385298   10.32639262428903   11.17050744829966
C         5.68062944082879    8.61310125921876   11.20234229661942
H         5.72309010113543    8.52967334580877   12.27731681140318
C         6.37229700391268    7.70401680953530   10.41016966116370
C         7.21524073862617    6.58387185885431   10.69853162870731
C         7.75676849088656    5.89671856765713   11.77848726010824
C         7.59372976331428    6.10356382328586   13.24085700153475
C         9.03772927473594    4.31597176774528   12.90358727135552
C         8.62796530877654    4.81699941977911   11.58976862824879
C         9.02685260370798    4.35344630540260   10.31379222425277
C         9.92684715617315    3.31560292668245   10.02538402954128
H        10.38557909843927    2.76838881102500   10.83387398283501
C        10.21003465797014    3.03713570552384    8.70572304075063
H        10.90839383546698    2.25590445247713    8.44956633825097
C         9.61003905400138    3.76391368410647    7.67329011849368
H         9.85210593334206    3.54612827878763    6.64074814945749
C         9.32622405576696    5.81140762780830    4.15465502137646
H         9.87770572867993    6.64519657658235    4.57169329658762
C         9.56374188100144    5.33764412732702    2.87573066449806
H        10.31382368543481    5.80924162000517    2.26235717483419
C         8.82050740905350    4.26773434768837    2.40488869449326
H         8.97357651866342    3.87978874636134    1.40993311392174
C         7.86195339119937    3.70724168343533    3.23604793077268
H         7.25701005594280    2.87770659467158    2.90404087192921
C         7.68177567932086    4.23096924403577    4.50513419135970
C         6.66614635098547    3.69832590228604    5.47985636517653
H         7.17505147594492    3.04885120678608    6.20428376525068
H         5.90538970232337    3.09932059260267    4.95921911421460
C         5.23763804896770    4.32333159922356    7.34508202872914
H         4.79217929369895    3.35368667970861    7.08373532440547
H         5.85177603336580    4.19820432228218    8.23941360323333
C         4.13749741359071    5.36234271112993    7.50524210770610
H         4.52557579262712    6.25869911785852    7.98797882169437
H         3.29765688236885    4.98526163113654    8.08472640490679
C         3.77684357185654    5.65289255918711    6.05270125551652
H         3.10174757029507    4.88658638899446    5.66620332966455
H         3.30888522379002    6.62511221526807    5.91049080654194
C         5.13273492194283    5.59482688104243    5.33875105580058
H         5.03802028717797    5.11396851731675    4.35834887633270
C         5.65343702413855    7.04663813657746    5.04344080103328
N         8.74169900055983    4.73460596699408    7.90698867245853
N         7.05887455741571    6.79880695169542    8.40714785429483
N         8.38379310756428    5.13264949728810   13.82500739918451
H         8.48133108132649    5.02368746605741   14.82351902236452
N         8.41109067593677    5.26402535046031    4.95113900742576
N         6.04952726081816    4.81103885272495    6.21270576025262
O         6.92877375087186    6.91130484707355   13.83672931154487
O         9.76688875863739    3.39920393832778   13.19929657178338
O         4.95504888181602    7.75781453760708    4.35333397346869
O         6.78012669399348    7.37332771607401    5.53224213120735
Cl        9.56814591247120    7.37923717504737    6.95834441750879
Rh        7.76567918467910    6.06012556915541    6.67244386846206

