39
CSD_code = SUNYUW | q = 0 | S = 0 | Stoichiometry = C14H20I2N2Zn | MND = 4
I        -5.31675866215549    1.48394419479873    6.23179435737358
I        -5.20390115837011   -1.88469539367506    9.03408797799202
Zn       -4.01509642569500    0.00182355265515    7.80595763772005
N        -2.06777269674671   -0.96414910651103    6.92465319138173
N        -2.46515617600761    0.78497641877685    9.36462622602436
C        -1.65702591804882   -0.39351450130242    5.62616891723339
H        -0.62484282281586   -0.69429461577701    5.38646312942231
H        -2.32209368537001   -0.80456839774981    4.85685559609748
C        -1.74772195815914    1.04939762155895    5.54676539394653
C        -1.83673698983847    2.23432464558950    5.34226145330266
C        -2.04048851297848    3.62053982346215    5.23106994635291
H        -1.91330545014965    4.06042156147576    4.25327831490305
C        -2.42312882250073    4.34820585040090    6.29366321733853
H        -2.62212009265176    5.40638249360599    6.22592600073860
C        -2.57264173010701    3.71866943117679    7.53972286649518
C        -2.67479437962911    3.04542487557094    8.53354511703798
C        -2.68025812023119    2.20697395538352    9.71123772847041
H        -3.64319849320506    2.29160050113308   10.22771163712865
H        -1.88947473189217    2.56365637350598   10.38884905139102
C        -1.05315125604262   -0.72723470887569    7.95868142046119
H        -1.13628935450471   -1.51951746278143    8.70680160789345
H        -0.04109806539871   -0.77554942460230    7.53277039011967
C        -1.19708922873447    0.63149237555744    8.64263795253446
H        -1.15993856347993    1.41147712083515    7.87800518185605
H        -0.33892317458759    0.77468297495419    9.31213890365268
C        -2.31623445267627   -2.40934822734484    6.75713425367135
H        -2.63498349969865   -2.80868504786205    7.72227169923433
H        -3.15481891901995   -2.52503533668245    6.06334016419435
C        -1.13879746911721   -3.24452252479120    6.25895320203094
H        -1.43942811460624   -4.28900438162501    6.25447096566174
H        -0.27427524501895   -3.14653466352899    6.91176785327534
H        -0.84804331242225   -2.97732875436924    5.24592014100342
C        -2.53152543504252   -0.03106285884914   10.58975035698544
H        -3.52737786096071    0.11069248279302   11.01869878988393
H        -2.45378542454326   -1.08117970569605   10.30409694660510
C        -1.49474328398794    0.24343297001134   11.67833184574149
H        -1.67527387579393   -0.45276836945407   12.49345328343948
H        -1.57584865907147    1.25057032540871   12.07946734548957
H        -0.47785797874022    0.08510393282440   11.32606993591546

