51
CSD_code = SUPDIQ | q = 0 | S = 0 | Stoichiometry = C16H32N2Zn | MND = 4
Zn       -0.15179499947542    0.43074274946993    3.84405744284014
N         1.94802683619418    1.80610145918262    3.72398582865070
C         2.99025867193417    1.22827591556980    2.87642162921155
H         3.14788087415643    0.19188547596108    3.17682594178837
H         3.93781730435897    1.77714079524219    3.02368138759586
C         2.60975722021202    1.26979603013164    1.40214467589928
H         3.42081089407377    0.83965189691587    0.81161959118226
H         1.71805035459353    0.66136020255561    1.25401465602210
C         2.33175627567659    2.70300174840877    0.96468721117343
H         1.97784374543266    2.72339905697102   -0.06742659637307
H         3.25242341651943    3.29076443435011    1.01596557822565
C         1.28849629223300    3.30549545818218    1.89767763132364
H         0.35362935386236    2.75164656640357    1.79759450766681
H         1.10416754779216    4.35225713338900    1.64695588513642
C         1.76178975325293    3.20218977193057    3.34205875374689
H         2.70644372741643    3.76315957681505    3.45691632023413
H         1.02147172186324    3.64909452977417    4.01013570761621
C         2.33903664692896    1.70942181282452    5.13010541169683
H         1.72318328606624    2.41057763404540    5.69999870540642
H         3.39290736558878    2.00951099000306    5.25619558966698
C         2.11680376853673    0.31148880603066    5.70519390315649
H         2.52199212464225    0.30830888135162    6.72530696540367
H         2.69057615956972   -0.41867408335780    5.13140463071901
C         0.63834139818072   -0.06661574549919    5.69866011358099
H         0.16269962937681    0.45665864552748    6.53119461896512
H         0.55331715332152   -1.13061557661404    5.93100173207954
N        -2.25200932198896    1.80597831908390    3.96400295558159
C        -3.29435203475690    1.22826519429032    4.81152357368349
H        -3.45199823836635    0.19186828378654    4.51116461778963
H        -4.24191449536480    1.77713385289207    4.66422749859233
C        -2.91396577229881    1.26977895909198    6.28582963010436
H        -3.72505158849604    0.83963383013054    6.87631534604693
H        -2.02226745919349    0.66134853025473    6.43400044326537
C        -2.63594650708329    2.70299817923699    6.72325131982709
H        -2.28202991496645    2.72339293928403    7.75535713763027
H        -3.55662162200877    3.29074966782561    6.67199260765219
C        -1.59264562492379    3.30557264820146    5.79036351833718
H        -0.65777508190771    2.75174375936727    5.89044751524720
H        -1.40835811501944    4.35235156358945    6.04107521022471
C        -2.06594863446036    3.20209222691290    4.34600125412580
C        -2.64291074501951    1.70915831242427    2.55783660867855
H        -2.02716132300007    2.41040230317359    1.98791482681615
H        -3.69676772528021    2.00914082317049    2.43171469860157
C        -2.42140794878512    0.31124789459648    1.98246859121643
H        -2.82662079112570    0.30801932612454    0.96231854132072
H        -2.99501615131084   -0.41887630000129    2.55649879854292
C        -0.94279905841795   -0.06609384757909    1.98964614951403
H        -0.46712404932920    0.45685345373351    1.15693293662339
H        -0.85802941317399   -1.13006174494205    1.75730995130161
H        -3.01061907145253    3.76303626242473    4.23106836929787
H        -1.32564583457933    3.64904139736195    3.67796007736455

