57
CSD_code = SUPHAN | q = 0 | S = 0 | Stoichiometry = C22H32HgN2 | MND = 4
Hg       -0.00002077724652    4.98901203815762    7.76156097320913
N        -0.75445533410014    2.51944645636551    9.07102228935820
C         1.81088218226292    3.57749785776985    7.98496421265506
C         3.12213478904183    4.05019817977572    7.93019740265697
H         3.31858735192732    5.06623466932565    7.60657793601961
C         4.20233244866905    3.24781441850235    8.26649690118311
H         5.20685055467627    3.64328808913828    8.20544492476992
C         3.99129691787263    1.94659079080770    8.68011675041891
H         4.82526172105756    1.31459488103391    8.95049238597364
C         2.69959166080862    1.45670067963220    8.74535199118551
H         2.53022234491893    0.43687312107913    9.06684375689288
C         1.61522264929645    2.25389642636466    8.40064343004966
C         0.22978833576284    1.64515134790401    8.43372818693473
H         0.28086583337926    0.66598630483962    8.93664700784474
H        -0.09632943711442    1.47700172395796    7.40093426809589
C        -0.51495417389591    2.57673990242575   10.51057501808889
H        -0.69115094498162    1.59926064031016   10.98801592531836
H         0.54456611678626    2.81675193979780   10.63767122070965
C        -1.34764948386865    3.64673594011162   11.20362042649203
H        -0.95597326199722    3.82445376408274   12.20204004421985
H        -2.38915022953103    3.34959234150530   11.29534914580251
H        -1.29858388331670    4.57663570208636   10.63817997860915
C        -2.12477534959901    2.16034534053701    8.71549522259704
H        -2.78325043023784    2.92130749420768    9.13823455316574
H        -2.19906720201645    2.22888253007035    7.62539780315376
C        -2.61113050774715    0.77580921040997    9.15545870075995
H        -3.62961560692980    0.62934169632009    8.80448748880930
H        -2.61033558392327    0.68293291936882   10.23857728484677
H        -1.98989512561115   -0.01126614377547    8.73509109948797
N         0.75446159470985    7.45856509242828    9.07102469549294
C        -0.22980571938220    8.33281832501256    8.43370879510623
C        -1.61523861487298    7.72406527115181    8.40065852228099
C        -1.81088931908170    6.40046894531468    7.98496317008447
C        -3.12214453675520    5.92778328998496    7.93014105384051
H        -3.31858059254373    4.91172912452242    7.60659570086475
C        -4.20235206874154    6.73014361539599    8.26646213838306
H        -5.20686069741705    6.33465791436316    8.20539094862193
C        -3.99131957645888    8.03136558670765    8.68012017198853
H        -4.82529347926220    8.66336681700395    8.95046130311177
C        -2.69961528355544    8.52125911734879    8.74536313294612
H        -2.53024540305102    9.54108914010521    9.06684395459757
H        -0.28089036343143    9.31199455592137    8.93659961149551
H         0.09629341174654    8.50093760801210    7.40090203509831
C         0.51497148355868    7.40128094466712   10.51057892817122
H         0.69115030446968    8.37877138093354   10.98800317197460
H        -0.54454158778098    7.16124736161149   10.63769195350174
C         1.34770749845420    6.33131002807503   11.20362022960893
H         0.95602661207475    6.15355091162121   12.20202952481383
H         2.38919346845911    6.62849914374150   11.29536983253889
H         1.29869206357687    5.40141836601248   10.63816132483551
C         2.12476856453410    7.81769625939842    8.71548527636432
H         2.78326537416719    7.05671159446045    9.13815261380847
H         2.19902903280756    7.74923749583448    7.62538138617872
C         2.61112244803902    9.20220756635018    9.15553428514186
H         3.62956221044526    9.34873771832661    8.80445808549673
H         2.61045346873398    9.29496931193467   10.23866348847764
H         1.98981413221127    9.98930725187698    8.73531833595504

