29
CSD_code = SUPNAT | q = 0 | S = 0 | Stoichiometry = C10H16BNZr | MND = 13
C         1.63286658729824    2.48441499102246    7.18731162005695
H         1.85590655284163    3.54461986034743    7.15633899396050
C         1.73501743188056    1.57430774007735    6.10360892313895
H         2.07843000913071    1.81445084720446    5.10130964648274
C         1.59252637500647    0.26765349723783    6.63430541977845
H         1.77605393095708   -0.65894810295033    6.10309522119592
C         1.37588447420149    0.37775225807250    8.01734610285084
H         1.29123322627487   -0.44648525755092    8.71308919541710
C         1.40879181529361    1.74207691303312    8.35924038342865
H         1.35723109028229    2.14393119424169    9.36262147721828
N        -0.82809879443087    0.02548219511245    5.00809980222036
B        -1.77227459363270   -0.75020096868180    6.04881929523368
H        -1.07137529617763   -1.02090506363331    7.01776343762192
H        -2.23109283274469   -1.73819554371632    5.55943393098845
H        -2.66685536303735    0.04491624793698    6.34637918909180
H        -0.08491369285297   -0.61217998360047    4.71641551227794
H        -1.38242321523108    0.20150591978438    4.16751462016955
H        -1.40564060964489    1.58670442053568    8.27134565564153
C        -1.11137443531553    2.87797480750911    4.52929767434827
H        -0.78689905112040    2.60813614368764    3.53040446128794
C        -2.39125071260799    2.63920127402999    5.07920260414751
H        -3.20581080354587    2.11463144108017    4.59401830777802
C        -2.48063103013157    3.34213734006902    6.29269751126896
H        -3.36412550880160    3.42751483992809    6.91342344026721
C        -1.25551739472643    4.01216196088950    6.50451781955709
H        -1.04937320921305    4.71418957597577    7.30498998338108
C        -0.41758584855376    3.73907120518790    5.40455732098695
H         0.51713677281765    4.23725617937151    5.17861024682367
Zr       -0.67613587421662    1.49162406779713    6.66434220337997

