29
CSD_code = SUPNEX | q = 0 | S = 0 | Stoichiometry = C10H15BClNZr | MND = 13
C         4.55834992692320    8.42523554954421    3.39980706906785
C         4.09409641516012    7.15237028565971    2.97587894164983
C         3.08402957264079    7.35752850436660    2.01656616358906
C         2.93572017298109    8.74740754384849    1.82060482193890
C         3.81993494895930    9.40485660353590    2.70170945747175
C         7.74001915572322    8.03697621798449    0.44736530360329
C         7.17757198913332    6.82387676898991    0.00209294266250
C         6.74922890049880    6.09867644225068    1.13507539423064
C         7.06023255311999    6.85880642404935    2.28411045466033
C         7.67058977099642    8.05800059254470    1.86050163902733
B         4.11411940036345    7.43799126013220   -1.16786488316539
N         4.76848476849040    8.86729325630321   -0.91951312520654
Zr        5.30701459525843    8.21549044539365    1.04015206055769
Cl        6.02825731584115   10.52943815189283    1.08546014234783
H         5.23730531977960    8.61829119862263    4.22514611689403
H         4.34442382281015    6.19926609186578    3.42833629741103
H         2.46467570501084    6.58863689746512    1.57424945055336
H         2.17394980471472    9.22397462061390    1.21479743202685
H         3.86128629912960   10.47207990904254    2.87886137588543
H         8.23976808008067    8.77709416122102   -0.16731215521928
H         7.16699831171830    6.46350407693738   -1.01919860620864
H         6.36787423452655    5.08468907223720    1.12820276828894
H         7.00009671605703    6.51179864088635    3.30967808284910
H         8.11134617640408    8.81205078387759    2.50279396256690
H         4.44247493943955    6.76729919991822   -0.13004280161272
H         2.92612959752562    7.54113746218674   -1.21713133011147
H         4.58251665709925    6.92111730116349   -2.13500993213745
H         5.53867500632672    9.06232406464179   -1.56340355708386
H         4.09892984328850    9.63288847282528   -1.01951348653752

