61
CSD_code = SUPPEY | q = 0 | S = 0 | Stoichiometry = C17H38N2RuSi3 | MND = 5
Ru        5.53077084612675    0.61140596624517    3.35333241133978
Si        2.34577252032481    0.16568784909087    2.48699949320278
Si        8.79732681602567    0.23140463073931    2.82569156154609
Si        5.35638015981790   -0.17451788547427    6.64858372240246
N         5.60530679872826   -0.50052173368120    2.14635734312469
N         5.55230445877822    2.54405745413224    2.64566170338818
C         3.49686835560601    0.98060814659196    3.76113988499030
C         0.54112230149614    0.69464072514714    2.85522365853021
C         2.77094842033661    0.74564787467400    0.71292169420750
C         2.45361853213751   -1.73728143827290    2.57788922080973
C         7.50282053182323    1.01287088194770    3.97714596277142
C         8.71402331874547   -1.67392916388166    2.88583100957995
C        10.54328288197144    0.78493453900341    3.38912733039855
C         8.55412710512648    0.82589463496506    1.02223658406751
C         5.46119509400466   -0.85764626948701    4.86917745393678
C         3.76357807288144   -0.81365598310975    7.49593212866628
C         5.33960126106050    1.74113303428796    6.82158660334609
C         6.84664844737801   -0.80218625042570    7.67243327704943
C         5.50347024866463    3.62854623949206    3.42692771062427
C         5.51736588876311    4.91901630483302    2.93024999900127
C         5.58469450432134    5.11348937182323    1.55967963271257
C         5.63538835199528    3.98943498137400    0.74611024644340
C         5.61730806677369    2.73405715123052    1.32209660010190
H         3.30086834886336    2.06365779432338    3.77055406667892
H         3.22616181076914    0.60252636866777    4.75127760561728
H         0.41151451877590    1.76940682876073    2.77418280364718
H         0.23605632344485    0.40204719478397    3.85467136239934
H        -0.14495082197705    0.22979758473964    2.15552843180391
H         2.79052181175102    1.82941921567374    0.63060424344342
H         2.04723670412664    0.37539498393457   -0.00630925912693
H         3.74761999522537    0.36471946015176    0.42767336363230
H         3.48523965816989   -2.05489567763588    2.45117578374125
H         1.86027400240082   -2.20442227425324    1.79815025636416
H         2.09918598536561   -2.11558056506267    3.53207062427158
H         7.67471758379097    0.63059525087742    4.98759444638874
H         7.67586222337390    2.09915800070062    4.01498762706013
H         7.70494292038249   -2.00662563632378    2.65714861665174
H         8.98170321624754   -2.05785477511607    3.86576442987257
H         9.38753706033960   -2.12180455913108    2.16182593733067
H        10.66266564125075    1.86248304578707    3.33267951096974
H        11.30753000687982    0.33884370621249    2.76201909511082
H        10.74529939744455    0.48580422415793    4.41254308191011
H         7.62524346476396    0.42497424102968    0.62627450051684
H         9.36221059683289    0.48446722373471    0.38297851132914
H         8.51503291693433    1.90994116760625    0.95090568334658
H         6.35251246501772   -1.48950731724173    4.78899351323822
H         4.59569427818888   -1.50546371946938    4.69251010786320
H         3.74058741724338   -1.89868527618803    7.50777683939041
H         2.86432134884480   -0.47552076307010    6.98965805869903
H         3.70713504951543   -0.47449365035092    8.52561912949732
H         6.24314202207498    2.19088240918627    6.41645730978475
H         5.28427973416840    2.02664045387850    7.86908993681269
H         4.47908320648429    2.18387506352166    6.32509948405599
H         6.87963450685995   -1.88697203351424    7.68263420026927
H         6.77960811713168   -0.46774541233213    8.70299576126278
H         7.79483068106284   -0.45224818254839    7.27514460089474
H         5.45062020624158    3.45859831203139    4.49764885630050
H         5.47588127929702    5.75468327221705    3.61134751834561
H         5.59710859552081    6.10699932688289    1.13962753854733
H         5.68863876242453    4.08293861483690   -0.32680822500441
H         5.65542598188203    1.83897503730311    0.71426941484520

