53
CSD_code = SUPQID | q = 0 | S = 0 | Stoichiometry = C19H24NO5PSi2W | MND = 6
W         2.14915334821927    1.66233088687924    1.69232874678998
P         1.13106265126364    3.10564148772857    3.40471190529064
Si        1.98382045080278    5.99211993032055    3.84262190620856
Si       -1.24046750891956    5.09337427111825    3.61068926145671
O         3.37338007083003   -0.23854240483940   -0.46689598384566
O         2.77607428553264    4.19341032944421   -0.05959154369260
O         1.31754296559250   -0.68736944980150    3.60221576342445
O        -0.59487693280274    1.39297844179669    0.19122661851866
O         4.93578143744563    1.73683938569947    3.14387621720563
N         1.54564316395289    2.92717539901359    5.10510201541588
C         0.38999617817813    2.42333305912511    4.86065556183960
C         0.60297787912246    4.83594265487576    3.15445488220768
H         0.65255142614711    4.93032827688737    2.06323002933919
C        -0.61707623351032    1.65520565857489    5.51343262124751
C        -0.66397245363213    1.59043805096953    6.90907835073957
H         0.05871934541800    2.14770341738068    7.48525985801281
C        -1.62956575447010    0.82097482546052    7.52610498148877
H        -1.67090820420648    0.77189483840834    8.60388410827731
C        -2.54133896543070    0.10423648091285    6.76455793296613
H        -3.29162442644904   -0.49978374290662    7.25253697834837
C        -2.49035715813934    0.15500311755610    5.37950168158187
H        -3.19592765061700   -0.41215573050408    4.79135905790384
C        -1.53792413766075    0.93277284313614    4.75191812181125
H        -1.48031103378341    0.97317070817251    3.67316406931834
C         1.69216346126947    6.34296803522154    5.69151005300305
H         1.72632282297032    5.42404867229204    6.26829226106005
H         0.73256223390772    6.81822476725350    5.86755248553639
H         2.46257661279407    7.00202668850541    6.07859566452666
C         3.65955295878438    5.12212439533308    3.60146518868892
H         3.81491634633270    4.83878705627202    2.56285203447283
H         3.70347807192324    4.21764563919724    4.20240489206586
H         4.49207575581390    5.75431635902589    3.89600208166081
C         1.95153705089321    7.60674681336837    2.83146299297293
H         2.11108713474996    7.41930389577455    1.77452834674801
H         2.73684663623119    8.27533511822271    3.16654747769569
H         1.00846193771351    8.13096952853080    2.93512500223182
C        -1.61927779277825    4.81280002909986    5.46351811299365
H        -0.71860938298745    4.66503886592344    6.04854636007792
H        -2.25422781823980    3.94458548325999    5.61362462749977
H        -2.14031025690611    5.67027231313658    5.87784146441218
C        -2.20598383593732    3.85007883183683    2.52828071452313
H        -3.16163099983889    3.57753453860549    2.96595168745762
H        -1.63162836611956    2.93691094938111    2.38741407336104
H        -2.40390499148935    4.25866617465499    1.54163823351429
C        -1.75251959011873    6.86934503138350    3.14959380929293
H        -1.46675396788934    7.12206272042460    2.13408172187538
H        -1.30002459451927    7.59901689186001    3.81279303910577
H        -2.82892794196815    6.98209621529599    3.22503879991912
C         2.93294799976352    0.46134025906076    0.32266677838997
C         2.57625485525509    3.26138523699936    0.57286598554310
C         1.64997671417866    0.13444623694626    2.87938589021897
C         0.39485042185618    1.51834092225467    0.75194788503484
C         3.92193578149295    1.74565959547274    2.62274919427958

