42
CSD_code = SUPVOP | q = 0 | S = 0 | Stoichiometry = C15H22Cl2N2Ti | MND = 9
Ti       -0.26634779674220   -3.33894410253192    2.21801281007114
Cl       -1.85496944400210   -4.83444312054286    2.52002285681185
Cl       -1.71564723812844   -1.79512059983207    1.61608511811863
N         0.27798370591709   -2.21398151672028    3.70727732437817
N         0.21411847721479   -3.50535135354232    4.09314061522545
C         0.38780447697361   -4.59975656029218    0.42064224165387
C         0.50322318482669   -3.23099231019366    0.06004127184830
C         1.47141327975872   -2.63048253231726    0.91665989572936
C         1.97470456553860   -3.63739724956200    1.78866835728836
C         1.28694916782914   -4.84980470568103    1.49907878780255
C        -0.41535889212061   -5.63195253329342   -0.31261476580462
C        -0.14612149777013   -2.57783929798511   -1.12284420392171
C         1.93657051857747   -1.20745622894876    0.82561506099060
C         3.10083578530793   -3.46387157439138    2.76533700896735
C         1.51357037852774   -6.19039764185090    2.13264250669406
C        -0.08839227147846   -1.43370178847230    4.73101301603782
C        -0.36268117456399   -2.25377297054204    5.82698904044534
C        -0.19288797696598   -3.56072701451265    5.36697872741139
C        -0.13712916417138    0.04862601927563    4.60549244175935
C        -0.37706561011933   -4.85784437688482    6.07298629978140
H         0.14703423386415   -5.99520566737679   -1.17652845192009
H        -0.64183661618911   -6.47906069165993    0.33187024751858
H        -1.35599721339082   -5.21314477689408   -0.67027343373458
H         0.46421847443500   -2.73825299600084   -2.01527362347118
H        -1.13521822848585   -2.99610084192825   -1.30662599940954
H        -0.25211682081700   -1.50592544264609   -0.96672849783276
H         1.08442222165079   -0.53625754929834    0.71141379037919
H         2.48436680939892   -0.91968880511689    1.72073783408912
H         2.59318167685530   -1.07720016567331   -0.03758160396393
H         4.05969740818088   -3.56617075279329    2.25190740182264
H         3.06609157422231   -2.47867611892179    3.23018299497671
H         3.05314705985616   -4.21300360735262    3.55385405460025
H         2.05995188011475   -6.09240924283193    3.06861250800673
H         0.55970522510304   -6.67655153688806    2.34127634626785
H         2.08797898347533   -6.83450945547083    1.46317344039318
H        -0.68040069935495   -1.94632220939918    6.80388602695505
H        -0.52672311430726    0.31483357672718    3.62316848176747
H        -0.77549439907152    0.47035062724913    5.37692617795603
H         0.86117143919937    0.47496084083903    4.70805904112816
H        -1.00588408438760   -4.72340446174296    6.94884225776018
H        -0.84124415454025   -5.57493275954165    5.39593040219044
H         0.58517586977925   -5.25921650445902    6.39264619323107

