51
CSD_code = SUPXEI | q = 0 | S = 0 | Stoichiometry = C16H22F6N2O4Zn | MND = 6
Zn        3.45227131108786    1.54602866663104    3.16023983442640
O         4.45934693431314    2.86195789175435    2.11473177188197
F         6.95853407159497   -1.14845470447520    4.23749214149575
O         4.85846348554132    0.23869097722585    3.54990539469293
O         2.07318133181647    0.28746052508141    4.56305883797332
F         6.99304926033231   -2.11391530328980    2.31400588995147
F         5.87344473919661    4.27718074967506    0.44703707129387
O         1.54560888489181    2.79284490119787    2.64957411168758
F         6.98247186753480    5.12138811463393    2.08776906350821
F         5.68239536676286   -2.83639477484941    3.85664816249388
N         2.76024752808565    0.52689519127668    1.59677788485167
F         5.09393511199270    5.97301532606467    1.51434304178215
C         3.23619055521781   -0.59728437583287    1.15060245980389
N         3.64237929954549    2.56179668053403    4.86169014896116
C         4.99464951239613    3.87140789944004    2.64449929558169
C         4.35562267513837   -1.23450457327448    1.73786611969548
H         4.69577609706463   -2.15323724343449    1.28722080428173
C         4.28437754267504    3.68207853748453    5.01078043436254
C         4.95568943544697    4.32048440273957    3.94043083610050
H         5.48411737877755    5.23435769349017    4.16089925267939
C         1.40861724856928    4.14863053001657    3.00546645791049
H         2.22779120589089    4.75662170236103    2.60785208522486
H         1.42061024034923    4.19746489343844    4.09124576525631
H         0.45672373278461    4.54585003785071    2.63213805915785
C         6.18635149305881   -1.70594664464091    3.30600969431814
C         5.04784074317919   -0.77814323216689    2.83109727072808
C         1.60462073046976    1.11190092110398    0.95772400728132
H         0.69696332517259    0.63641565591105    1.35271436751327
H         1.62614660689841    0.98446188917108   -0.12970027885356
C         4.34183176453101    4.38934681235186    6.33975502951418
H         3.34243420029015    4.52349727928175    6.75032324906616
H         4.81142110676009    5.36204982202256    6.23553324104217
H         4.92491553144648    3.80398722191801    7.05008260336554
C         1.78017365513830   -1.06975529870417    4.32656439740943
H         2.69001966071495   -1.67546808339283    4.26278441573730
H         1.24765491734805   -1.12226020123180    3.38050246316994
H         1.14370036672055   -1.46670779582120    5.12691791361073
C         2.76676767299181    0.47967809870652    5.77827225222913
H         3.74247756662309   -0.01993606257085    5.73724425624881
H         2.18202253449648    0.06110955504765    6.61105382708086
C         5.74973884150067    4.79788245720713    1.66765927360060
C         1.53422300390362    2.60460897789098    1.24973479416835
H         2.39612573864962    3.10871497969344    0.79566681265262
H         0.60810749247373    3.02056295912939    0.82557065326315
C         2.96727393845302    1.97347459675398    5.99500354620940
H         1.98167923911635    2.44408023539255    6.10877342282066
H         3.53101945334634    2.10349961506469    6.92468658161070
C         2.61037929029512   -1.31093936400406   -0.01922090408064
H         1.54069249031015   -1.44292952882346    0.13506758544769
H         3.06685668288280   -2.28494330608545   -0.16246384199646
H         2.75246713622081   -0.73070530494684   -0.93043155822078

