57
CSD_code = SUPXUY | q = 0 | S = 0 | Stoichiometry = C18H26F6N2O4Zn | MND = 6
Zn        9.51453583988176    7.75965308658266   12.98339806173218
N         9.96195472385390    6.90281447193846   11.24732415009650
N         9.15760501239416    8.09655988623877   14.90883015887072
O        10.71347203004062    9.29258082279089   12.72449435527571
O         8.10472550148247    5.87848080359289   13.07603454737570
O         7.89302168712433    8.66930833878928   12.35296153100625
O        11.42080441278268    6.76434389797191   13.93722535533772
F        11.91856509795557   11.47709649515889   10.40651995517188
F        11.89791952240132   11.60574096384824   12.55519219667256
F        13.44216142865385   10.48977389705828   11.55785733705260
F         6.04268188045893   10.05986752535151   11.16422649414254
F         4.81740995256709    9.47598655997241   12.83188051177981
F         5.87358933965395   11.34752987247924   12.88093451304624
C        11.27688599859124    9.48552587531658   11.61599359107594
C        11.32266769922010    8.70317635187174   10.48887946167000
H        11.88913299703681    9.08619062342086    9.65481649945392
C        10.67653478409962    7.45616498960258   10.31258884408331
C        12.11850249518240   10.77736085820890   11.53435246638505
C        10.88060367259722    6.81047048378085    8.96363515293520
H        11.23144371443973    5.78550533169673    9.06177219986045
H        11.60720997351511    7.37007994093646    8.38340851288607
H         9.94176507488185    6.80132932485978    8.41096304165764
C         9.32724872224498    5.61936863427724   11.02638680060958
H         9.15576308797571    5.43184254979164    9.95962688185521
C        10.19051593530782    4.49833137818623   11.61136101078762
H        11.15610527364694    4.45810898742422   11.11280133138112
H         9.69414329514209    3.53934644006952   11.48473015136613
H        10.34810305016308    4.68429975469282   12.66943654825460
C         7.95226929633254    5.62914469166093   11.69518933240050
H         7.33337872337875    6.41364040530456   11.24111006756226
H         7.46217976158419    4.65501411417520   11.54735851074870
C         6.86395059705028    5.89672504507356   13.74425786440028
H         6.18915435930094    6.64618134177773   13.31949358844176
H         7.06138866986303    6.14349220420290   14.78363537785998
H         6.38555205528311    4.91154064241303   13.68206492291110
C         7.18035521744646    9.33350292159283   13.14934048880520
C         7.24752778408325    9.46182707930270   14.51446438988144
H         6.50498886264031   10.09066253984576   14.97978852550810
C         8.21268083323572    8.86646128684317   15.36153822494104
C         5.98899945229960   10.06691978924317   12.49613384176905
C         8.06420559103656    9.18452616257815   16.82956272586053
H         8.05783653831970    8.28081423026428   17.43490532997846
H         7.14011529500129    9.72535817622993   17.00684536310768
H         8.89164068497336    9.81280050284882   17.15776607621082
C        10.11827985925791    7.50028576022567   15.81466712226118
H        10.22240721931901    8.08644230792057   16.73561637559662
C         9.69579448695128    6.07023434515678   16.16202849190953
H         8.73807259618845    6.06757650742438   16.67714082095851
H        10.43838966255431    5.60712307320250   16.80712772159387
H         9.60476917723292    5.49291848986679   15.24694273462987
C        11.49153995614192    7.49567542418923   15.14229462970841
H        11.79703180430376    8.52898234491659   14.93350419356645
H        12.23015734884945    7.03184525577110   15.81333414919327
C        12.66431213201975    6.72657251097416   13.27485574241724
H        13.03619486527001    7.73290945587140   13.05938591330292
H        12.51515900499277    6.19411600671473   12.33976957926673
H        13.40429596179760    6.19766923850260   13.88804623339200

