62
CSD_code = SUPXIL | q = 1 | S = 0 | Stoichiometry = C31H26N3NiO(1+) | MND = 4
Ni        3.94516439646492    0.89066712494233    8.87369392440121
O         4.97091110488508    1.29511589863032    7.45916257284100
N         3.24608843618314    2.74790190953204    9.11196005541905
N         4.64093009409425   -0.86021680769322    8.95388141987072
N         3.07893173065703    0.55156291925618   10.59739203400454
C         3.14911575356534    3.76294301133454    8.23921152600117
C         3.24952804098664    3.49640845748983    6.79906737518621
C         2.51538392669156    2.45382376695107    6.23806636612038
C         2.54990742528157    2.22890927025503    4.87516150938987
C         3.31085230313089    3.04774790399810    4.05698785974511
C         4.03775068833519    4.09179315990949    4.60681767996097
C         4.00706945388869    4.32047463695226    5.97036462740195
C         2.88383721288406    5.06430892683104    8.67090132294329
C         2.67535958608506    5.31531599335273   10.01147859306027
C         2.72445224120266    4.25106933383809   10.89952074342928
C         3.02254077790682    2.98947313781848   10.41400742565376
C         3.15789866468734    1.81375182332772   11.34813822673107
C         5.21361253005202   -1.55867001529492    7.95301979513957
C         5.44783190134391   -0.93556405926024    6.66685426001791
C         5.37175922596290    0.48054498433640    6.53121210492219
C         5.78788101371029    1.05414247570786    5.30924650350378
C         6.16714604054854    0.27862310507171    4.24618493606782
C         6.13891768982390   -1.11173188361022    4.34635614821879
C         5.79773706896821   -1.69757551538904    5.53906908411613
C         5.63394514661997   -2.88044666928410    8.20142214591735
C         5.41096192550736   -3.47034651871491    9.41950270110211
C         4.79178645051497   -2.73419722361591   10.42573041291402
C         4.44151845591812   -1.42941477025945   10.15799877461660
C         3.85797785905847   -0.53460788200162   11.21951740869617
C         1.66549496832412    0.13870600708585   10.44772183744303
C         1.55185252598340   -1.08069688649530    9.57037247771871
C         1.19933753099365   -2.31720053790078   10.09209298488227
C         1.16335910275048   -3.43555576424024    9.27583903917816
C         1.48742572938716   -3.32916852259993    7.93453691201642
C         1.83102998011594   -2.09673801711830    7.40205805353220
C         1.85574618713541   -0.97831635349343    8.21546402069907
H         1.87544292692979    1.85685235890726    6.87380296434507
H         1.97348369652232    1.42264679175647    4.44787559323975
H         3.33501798660521    2.87462719451576    2.99239934205417
H         4.63098631079108    4.73071867927711    3.97041707297399
H         4.59212481871988    5.12073661638043    6.39821294389759
H         2.82076380907083    5.85547349854434    7.94161508004458
H         2.46319377542502    6.31313448060369   10.36184966384121
H         2.54651603415556    4.39528302694638   11.95304971835439
H         2.39821275625742    1.85836844579024   12.13998862564558
H         4.14029508157551    1.89054889101799   11.82773329187753
H         5.78755282363852    2.13021873617275    5.24937269901576
H         6.46998377774220    0.74749131158102    3.32263431010685
H         6.39233377772692   -1.72272697761423    3.49509320856330
H         5.77423721620240   -2.77407897989800    5.59531879700089
H         6.15229349242282   -3.42510216612880    7.43215749801429
H         5.72106459299963   -4.48718534037278    9.60134840611681
H         4.60104207458456   -3.16167277830455   11.39591546758419
H         4.69611701584011   -0.10555793418225   11.78061931779933
H         3.24781355971065   -1.11245094832314   11.92343986640496
H         1.23790778427283   -0.06814594357792   11.43853021212180
H         1.11401714017030    0.97207980664203   10.00047310999607
H         0.94439554937796   -2.41038710594902   11.13803983889001
H         0.88423084442429   -4.39150871216541    9.69077586253637
H         1.46528902531707   -4.20296014647564    7.30247248456129
H         2.07728402519290   -2.00534291859957    6.35528354917836
H         2.11135693467309   -0.00409630619622    7.78776821297869

