73
CSD_code = SUPYIN | q = 1 | S = 0 | Stoichiometry = C37H28F5NPRu(1+) | MND = 8
C         6.04291859222089    6.50873017260306    4.67351004424270
H         6.21829976549401    7.14951575539264    3.82041465587450
C         6.88422810611246    6.35937580988245    5.78274174103950
H         7.84868540976967    6.82785936137759    5.91137828389697
C         6.35827287545190    5.30063758670508    6.59265357217237
H         6.87744825808793    4.83972199798623    7.42392573458508
C         5.19835599987402    4.80053240282149    5.97336141377153
H         4.66903353324701    3.89484263890706    6.23572587761579
C         4.95936419124249    5.58493529685133    4.80526094911732
H         4.24404662851172    5.34844998514978    4.02702486621138
C         2.80025117923397    6.86517609554511    6.85794384752889
C         2.07773925401125    5.84587062917219    7.49976493799927
H         2.60831288643889    4.97030417004561    7.84230873534153
C         0.72192549751825    5.93817275930375    7.71022630012730
H         0.19083307221511    5.14200376990941    8.20916317319268
C         0.02494387902117    7.07320150382814    7.27537516076708
H        -1.03546497678109    7.17271101771891    7.43351145092882
C         0.71890393640926    8.04852529660396    6.62188087829770
H         0.25892341433678    8.94224443512014    6.22767155670061
C         2.78459829239266    8.88906460300596    5.65313453335125
C         4.25700370444702    8.67294303766681    5.87208297239341
C         5.14836926719746    9.65170966543367    5.31732107559680
C         4.79228911244480   10.53243721043552    4.27775945254710
H         3.80795164405149   10.49660612435738    3.84024577964951
C         5.70897410014983   11.43024757870612    3.77373844612221
H         5.43107496205439   12.09569227128472    2.97078945524448
C         6.99395578007737   11.48647317163652    4.30306755713188
C         7.36579341802591   10.64149460825972    5.34287685529992
H         8.35891798347250   10.70254138930058    5.76055102673399
C         6.45280378204362    9.73996556386533    5.84112544982878
H         6.71877746315909    9.11325388350004    6.68180088125737
C         7.97653213865285   12.46850759026730    3.72012586300250
C         3.51488337240370    8.57135604308777    9.26291833751430
C         2.51869000626816    8.06311331731992   10.08999277031408
H         2.62619275068633    7.07990679246562   10.52542087773964
C         1.39224149936405    8.82217128386688   10.35861646404713
H         0.62337972615855    8.42598275638735   11.00418601235256
C         1.25272689297914   10.08474408027230    9.80700104087711
H         0.37542244823848   10.67432586771052   10.02307973597282
C         2.24078985464974   10.59364107903877    8.97741365652179
H         2.13431495332628   11.57510700083659    8.54238786347780
C         3.36269835502765    9.83671082217781    8.69714708050503
H         4.13017417530498   10.22082674531971    8.03542048747601
C         6.41674918693942    8.56536576478618    9.23315708616470
C         6.35352315723401    9.80344264515414    9.86307425444424
H         5.39916361323242   10.24883539102199   10.10168273962838
C         7.52458262309898   10.46340901148063   10.19684030215429
H         7.47178354553375   11.42446723626849   10.68494081054964
C         8.75599189048455    9.89714850718237    9.91312285294498
H         9.66332144450890   10.41951471737386   10.17322089632292
C         8.82320623187826    8.65356927532282    9.30317041207814
H         9.78158743811689    8.20269454570014    9.09497153597291
C         7.65948255507600    7.99074521777983    8.96551823487887
H         7.70238741105452    7.01424040960836    8.49959329811228
C         5.02731318258299    6.28328382484588   10.05125384099928
C         4.85558480224978    4.93912422269546    9.74628756352621
H         4.67966481197067    4.64323768378270    8.72077784755560
C         4.91815104508822    3.98636293186346   10.74867830114299
H         4.78701808029752    2.94211969033773   10.50813034605316
C         5.15296392540241    4.37312365381903   12.05747232452829
H         5.20489973312849    3.63000844757835   12.83788058983719
C         5.32485923671663    5.71461375083568   12.36605833927849
H         5.50880737996646    6.01522624145478   13.38599201845684
C         5.26486964953008    6.66998743798316   11.36976768074856
H         5.40002088654374    7.71632634979186   11.60600391323899
F         2.43724747371703    8.67415625949630    4.34126965108984
F         2.33121482109058   10.13784021297070    5.92360331276632
F         8.38810984919413   12.08275454025264    2.50036225426184
F         7.44131990256434   13.68825887854629    3.57592502898592
F         9.07513475249812   12.60947445285317    4.47074887006870
N         2.05036183335206    7.91927661947162    6.43815145840522
P         4.95599294148514    7.57470314755298    8.77024407508174
Ru        4.77300941046520    6.94095576105395    6.52255330635674

