104
CSD_code = SUQCEO | q = 1 | S = 0 | Stoichiometry = C54H43P3ReS3(1+) | MND = 6
Re        4.67326359197989   20.18048583264007    2.30328080021042
S         6.99665093595964   20.74872996381724    2.32157144270978
S         4.76807100516912   18.57706058412354    0.54019566456682
S         2.19390432304755   19.83084952983058    2.11532753807679
H         1.64671274704767   20.70501684327834    2.97560200628936
P         4.59605973899479   21.63544018862053    4.20716363938052
P         5.13385154140288   18.16317353387417    3.53427594642130
P         4.31228359503009   21.74530943837094    0.52968398198065
C         7.32965655637252   21.43751498872301    3.90556649219660
C         8.66015871873662   21.60782073108262    4.28188749088288
H         9.43872762906442   21.32274992757564    3.59112618273973
C         8.96832979317642   22.11691666604973    5.52733130305929
H        10.00148058161451   22.23992308842120    5.81361933835423
C         7.95667332067188   22.46036333288002    6.41408528384161
H         8.20059356181990   22.84537029134799    7.39208615131622
C         6.63314003312885   22.31453958371180    6.04233053310994
H         5.84432157073167   22.57448498383319    6.73473862834950
C         6.30541802810624   21.81845462328402    4.78223505092699
C         3.94319718311105   23.33520071547812    4.04927804876204
C         4.48095124959778   24.41898777234925    4.73193922561575
H         5.37024233481127   24.29901450764320    5.33076614657936
C         3.88632976070363   25.66391744369080    4.62720812431078
H         4.31028308870571   26.50284999729409    5.15781202620503
C         2.75379666011705   25.83805324009370    3.85018259494793
H         2.29005469605743   26.80964510162293    3.77911638152155
C         2.22458026745798   24.76555983694528    3.15195366428305
H         1.35179637794909   24.89878416279105    2.53020436586278
C         2.82221958822648   23.52391686931536    3.24599721058626
H         2.43444030102466   22.69208750063462    2.66794507106277
C         3.66503737917308   21.06529787630346    5.66148993002495
C         2.29550317615688   21.31437338909718    5.73520712274634
H         1.81588615178122   21.92181796991104    4.97908627833351
C         1.55219135038340   20.81187800133594    6.78688348466079
H         0.49275807592916   21.01346320369083    6.83913132999636
C         2.16659340193252   20.05717491015258    7.77376667372603
H         1.58532053836507   19.66590215680766    8.59438935543396
C         3.52835085797216   19.81386357188619    7.70848655867542
H         4.01403273249365   19.23490440762391    8.47908857458496
C         4.27744311829841   20.30924560327116    6.65617639126151
H         5.33849436823313   20.11737671408208    6.61046909459304
C         5.95440912727530   17.40971366221311    1.04552690123175
C         6.65864853918114   16.67662072959913    0.09719918212977
H         6.48399611481396   16.86176080491626   -0.95201913312905
C         7.58154154235114   15.73682858366331    0.51414175214552
H         8.13855252990072   15.17594386663415   -0.22063400028985
C         7.79340938500022   15.50781221393036    1.86681466193416
H         8.51061882376746   14.76614678290321    2.18281827199238
C         7.08537636133817   16.22497844532373    2.81640623183986
H         7.24364350576799   16.04259445988467    3.86986339752181
C         6.16775176775395   17.18476145887762    2.41151726547017
C         3.64025445257669   17.15064254693851    3.74854170226299
C         3.52238785435680   15.86386554593159    3.23789615080048
H         4.34362135343309   15.41467104406174    2.69687132857390
C         2.34463316365660   15.16020256463827    3.42347090037946
H         2.25227442011775   14.16159947532459    3.02381280321362
C         1.28971258128037   15.73037897835412    4.11644884504577
H         0.37526213017621   15.17466805021206    4.25746174572886
C         1.40517732130915   17.01462462991929    4.62608439820918
H         0.58476157895926   17.46230066753654    5.16720169140920
C         2.57387996598605   17.72638330008146    4.43765999762430
H         2.67630717022534   18.73203326112901    4.82772206270120
C         6.00828738458498   17.98946636910921    5.11144994482646
C         5.43208042594367   17.39965781686422    6.23092868894373
H         4.42430069227674   17.01314582860694    6.18448699648357
C         6.15861638337087   17.30530126580091    7.40518015662305
H         5.71589038443699   16.83357648064946    8.26978241851514
C         7.44735252237656   17.80886973311168    7.47426407682516
H         8.00476290276018   17.73954314842087    8.39591645758747
C         8.02685738066477   18.38920426919690    6.35621021051808
H         9.03559982315228   18.77098108220779    6.40226910403608
C         7.31446719000784   18.47128707097906    5.17573564294142
H         7.76869529917461   18.89461306505871    4.29091728140546
C         1.71378813787449   20.71338164395469    0.61070227438892
C         0.42368467961193   20.51394657595208    0.14763192756988
H        -0.26071502781300   19.90303304185337    0.71616841062577
C         0.03318292016387   21.09007799464435   -1.04836305533066
H        -0.97152581566886   20.93993516250576   -1.41094307398156
C         0.94111779289700   21.82994581955457   -1.79100464701290
H         0.64617354363937   22.25225502873759   -2.73930917373371
C         2.22962054849724   22.01856898942826   -1.32733657930895
H         2.95040623249139   22.56223990508251   -1.92223647355682
C         2.62884307267089   21.47779754240877   -0.10491618990032
C         4.48772032941124   23.54495957990065    0.74497304576118
C         5.57045566994858   23.96267307601204    1.51613054566501
H         6.20096154715669   23.22099846003905    1.99332881700492
C         5.82642435162046   25.30851413835522    1.69127396346768
H         6.67144881619595   25.62201539014901    2.28551323412761
C         4.99420795528625   26.25022140024613    1.10896797534027
H         5.19238561572779   27.30266613233700    1.24113503007901
C         3.90016756029174   25.83959624040177    0.36678706208545
H         3.24114095856207   26.57214047108089   -0.07428005069302
C         3.64168709808242   24.49268049535816    0.18337115753622
H         2.77255064424625   24.19137644472702   -0.38148875599752
C         5.35760632836737   21.43384146507822   -0.92214939613276
C         6.61971310030671   22.01741754728858   -0.98790954335532
H         6.93692131070992   22.71078865644698   -0.22231793348058
C         7.46872249281815   21.70906302035435   -2.03487933120691
H         8.44564141752409   22.16587475572990   -2.08249357099353
C         7.07116888538928   20.81407617908625   -3.01447291525676
H         7.73738869237253   20.57229609617147   -3.82859233753616
C         5.81908829768492   20.22534381542216   -2.94653309506848
H         5.50728777100857   19.52299859895952   -3.70525884528211
C         4.96337996637055   20.52643140823756   -1.90354714578535
H         3.99332509805933   20.05204863898501   -1.85088359375560

