64
CSD_code = SUQNIB | q = -1 | S = 0 | Stoichiometry = C10H34B18IrS(1-) | MND = 11
C         2.37042960485446   -2.14774133327585   14.17573912883881
C         3.04869103329655   -1.43988937969600   15.21415379575123
C         3.89660976068421   -0.49135996811697   14.60717524987108
C         3.75749831518743   -0.60092997090766   13.19515359786475
C         2.84139278237464   -1.63466303904010   12.91687355942990
C         1.56174462743088   -3.39618846070733   14.34160428054540
H         0.84232879645610   -3.49444583882118   13.53302923104182
H         1.01561768086019   -3.38115572916750   15.28100226343095
H         2.20880494891632   -4.27794041686737   14.33589452909509
C         2.94503133007820   -1.72263753695768   16.68073114308662
H         1.99122895080799   -2.19063680355243   16.91077683991816
H         3.01295563837083   -0.80229922836874   17.25630906158714
H         3.74314808993213   -2.39468562290611   17.01015517591240
C         4.87464639163758    0.41079597651565   15.28960935964007
H         4.62852351402347    1.46161247508825   15.13054852005007
H         5.88280260128282    0.23878976321437   14.90392919802202
H         4.88246902810495    0.22922144402472   16.36088687802043
C         4.53418920156169    0.19986989678317   12.19684212717054
H         4.76493373265530    1.18670842790247   12.59488422296935
H         3.96864493681620    0.32642022803257   11.27513117466937
H         5.47998437420007   -0.29070751972230   11.94707580974603
C         2.53948770325205   -2.22742234978049   11.57585539193951
H         1.48819713970701   -2.49587552484541   11.50182695767819
H         3.13580278304713   -3.12890508205765   11.40824174913252
H         2.76398335688532   -1.52021322108633   10.78091839272479
Ir        1.44828314990883   -0.09656991853895   13.97778784670363
H         2.39942060178578    2.24232877494823   14.61955007730044
B        -1.84836512592099    0.49475472608317   13.68605595025513
H        -2.93225645046106    0.01901235180883   13.60555330410143
B        -1.53756353914366    2.25196573163361   13.80112081342219
H        -2.43480811778629    3.02846619054603   13.77366791850605
B        -1.35376664559549    1.19069795527467   15.21608045095291
H        -2.14357108686579    1.14559372806049   16.10401039038081
B        -0.56615819012860   -0.30791172911596   14.63561615309250
H        -0.79714847097373   -1.33048890489950   15.19068307439627
B        -0.42706995425177   -0.23995428558954   12.88086328693256
H        -0.54987565659712   -1.23449813960376   12.24336185524685
B        -1.13337204631959    1.30828913958339   12.30472441545370
H        -1.75725209493624    1.40735967977136   11.30114640573679
B        -0.23434091446737    2.56322200605943   15.02453076981018
B         0.35195806261055    0.93237140908064   15.58396692583115
H         0.49862536015733    0.45281336560436   16.65504520520953
B         0.58315615063743    1.05125326165137   12.29107134375096
H         1.24346783196856    0.98991054250372   11.30807363558963
H         1.02994748574672    1.98036201577982   13.03975959407994
B        -0.11542429322039    2.59617953179920   12.92948564420807
H         0.07834543824236    3.63630465037664   12.40369678603503
B         1.55619565612372    2.38147276923145   15.45112981487416
B         0.61132543463232    4.77230051615980   16.93710185437124
H         0.58663807068692    5.95449341147133   17.02963801581200
B         0.68257751852616    4.01951527360538   15.30904102349978
H         0.74388180601080    4.78344432019068   14.40873951773751
B         2.10148975689458    3.91174748469209   16.35257477424384
H         3.09470719411915    4.44056200458071   15.97555306702988
B         1.70713791401626    3.93212936697142   18.04337099252065
H         2.30730540667075    4.46982322123164   18.90862540291750
B        -0.76899058362574    3.86879321464498   16.25198473278304
H        -1.01449762470840    3.01350583756573   17.16119373930604
H        -1.76779152885253    4.47859665883217   16.07631515632002
B         2.17480380671273    2.38361975442351   17.13684853099681
H         3.17089343713196    1.81023358045148   17.42032441379487
S         0.95875927563167    2.23284983411634   18.59841777972002
B        -0.18987344395792    3.65929266557758   18.04865355747095
H        -0.85033991282400    4.03383681775303   18.95748814146530

