64
CSD_code = SUQNEX | q = 0 | S = 0 | Stoichiometry = C10H35B18Ir | MND = 11
C         4.76648415316465   10.75960166161057   12.49431266129455
C         5.00462966470266    9.37675979947641   12.52252380682692
C         3.74117676853398    8.73726295210794   12.81153830285358
C         2.78321807237625    9.76827918608592   13.11258518423314
C         3.39932543920698   10.99870335462998   12.88491628445948
C         5.77759702179970   11.83609896873822   12.26532868601936
H         6.24590207721573   12.13001376893928   13.20697170816946
H         5.31241243246686   12.72060267161662   11.83534715000333
H         6.56196565833718   11.49597812519473   11.59267442066826
C         6.32603469833902    8.67980659532640   12.46708840471725
H         6.62781820949130    8.38297078771518   13.47281969902919
H         7.09462351151558    9.33177441769848   12.06245089251934
H         6.27226755012880    7.78676766753837   11.85026597686047
C         3.56288433787971    7.29886349630770   13.16587412977377
H         3.66206515369971    7.16869031502108   14.24483833889522
H         4.30989880247137    6.68275125278163   12.67655515513977
H         2.57841519846661    6.94569290225308   12.87231924702962
C         1.39732652213605    9.50404265416700   13.60190830237374
H         1.41282994508872    9.22159754957769   14.65606880388133
H         0.94615929037420    8.68511054500143   13.04531717396791
H         0.76509679844593   10.38163180869055   13.49601316179820
C         2.83635874675663   12.36362936279514   13.10414188482647
H         3.43743369871700   12.89774833937262   13.84118430751096
H         1.81499113536539   12.31414868218494   13.47073736822930
H         2.83912070026210   12.94741145481220   12.18423795140778
B         2.92603975328618    7.47837158827242    8.28681688432329
H         2.64983678678777    6.37212837302110    7.98554230638791
B         3.12290229150867    8.79539700684492    7.09550850230722
H         2.97772386770188    8.63281739034169    5.93540404650411
B         1.71242343025331    8.73469567535626    8.17246782804823
H         0.62773637599228    8.45048898765603    7.78293311111865
B         2.29325721440712    8.20110285869854    9.78707015311567
H         1.60231661062691    7.57383474127826   10.51473083940359
B         4.02036441870541    7.85124760380127    9.62617738911513
H         4.50080520374842    6.98631456010926   10.26682540269471
B         4.54014712439965    8.12320695448483    7.94797278580709
H         5.34277544474195    7.43745930699988    7.42315717156797
B         2.56440885734426   10.32574788460913    7.82008256612308
B         1.91355810590836    9.85664602825706    9.44217300542206
H         0.67533625303834   10.10665972760484    9.85109599536201
B         5.02924712623341    9.23280559601623    9.20711824627479
H         6.13761610167123    9.32292788235806    9.59382554802020
H         4.76095969772679   10.37578657939390    8.69892846744522
B         4.38030478760618    9.86581881637179    7.58865207528376
H         5.03359501567050   10.41254598906245    6.77132502839734
B         2.43442438651661   12.07333774929072    7.70758767038096
H         3.32360653017086   12.70078470412640    7.25179664299223
B         2.60556256137789   11.43659475027732    9.36748005124509
H         3.58627843626752   11.84431070175371    9.89498812840047
B         1.41729320668994   12.67982889974626    9.08330735465754
H         1.55477270223528   13.72474668158446    9.61615220683598
B         0.75569516199880   12.67921295767387    7.44246424919967
H         0.59343740001160   13.72380407558306    6.92074812534781
B         0.93650867218812   11.32635356834312   10.07414262391566
H         0.74206484178107   11.49285103337189   11.22603603948739
B        -0.22003207760726   12.05254645030103    8.85599903996766
H        -1.16088538125168   12.64385796169219    9.25590103495833
H        -0.68544460950659   10.93563339266992    8.31523345175219
B        -0.32331926906423   11.36612823438699    7.14730770739309
H        -1.27209888847983   11.44974655824719    6.45366610099626
H         0.39474757238000   10.37505817576161    6.77282902334260
B         1.40265450876605   11.21568268739208    6.61573953104305
H         1.65420222697724   11.19285701201773    5.46475319424044
Ir        3.56174196423960    9.64822253560029   10.81364146863513

