49
CSD_code = SUQRUR | q = 0 | S = 0 | Stoichiometry = C15H31LaN2 | MND = 11
La        0.34481748034077    3.86192466327820    2.17165827478433
C         2.52040354524610    2.49958788582747    1.96619025477192
H         3.32390940088448    3.23124097209326    1.81182250503868
H         2.50357519078904    1.80048345091169    1.12226817863043
C         2.71594307896496    1.79011835864091    3.22890121418932
H         2.35143277122514    0.76271986412977    3.26633885325921
C         3.32325750129573    2.27683058596289    4.31817208948101
H         3.72603563482762    3.27806436465939    4.33605240852459
H         3.43629803367244    1.69807765034177    5.22040032435418
C        -3.68582308706416    4.80630101187607    1.84855184514693
H        -3.96968209059077    3.94907589865254    1.25565778462960
H        -4.41351557736675    5.14205383231868    2.56845702666708
C        -2.51146798037656    5.42927211303940    1.67963435918872
H        -2.31767581866281    6.31467743058648    2.28612675590534
C        -1.45490251159391    5.05697994688483    0.74590156045506
H        -1.84566003715123    4.44381327167157   -0.07547679307181
H        -0.97113692898119    5.94990523467229    0.33227866619804
C         1.09073488742631    5.81594656703210    3.59651605212040
H         1.94073147304388    5.46699744366509    4.19359891927434
H         0.24192581561593    6.07232253215088    4.24006071116223
C         1.45915459297309    6.92171346669407    2.72531167902996
H         0.65021500559247    7.58463196482109    2.42175963585237
C         2.69643888267286    7.18823339462610    2.28982672974063
H         3.53514790834427    6.56972765332328    2.56961067926749
H         2.90639990146003    8.01505034716544    1.63362151824184
C        -2.16448796626167    3.56456149766502    4.86599361920749
H        -1.82406794551784    4.57506239116484    5.08613043438180
H        -2.69691095643631    3.17649324353275    5.74684415233493
H        -2.85735417098388    3.62072735135210    4.02845301521693
C        -0.07095794515959    2.75063021281125    5.64732222739045
H         0.82928020718668    2.19397288149283    5.38829959784784
H        -0.51363471761315    2.31777754220942    6.55586386271431
H         0.21459617145785    3.77939928540136    5.85976534446904
N        -1.01321043945758    2.72802983731423    4.52656157806651
C        -1.44075789464249    1.34523438025108    4.29107245868686
H        -2.14660494936571    1.02505757714450    5.07611649440820
H        -0.55812404318615    0.70702690682253    4.36315237626987
C        -2.11390879895564    1.12874936625969    2.93396282891163
H        -2.57485374854093    0.12583203767445    2.93937437497293
H        -2.91358971102141    1.86230452655776    2.81392344731901
N        -1.20386182823523    1.26349127363496    1.79226049291300
C        -0.33453351885227    0.09319456093704    1.68862111927285
H         0.28588403350093   -0.00133271802605    2.57613503592196
H         0.32014851755694    0.20544100294641    0.82522215433101
H        -0.91900046839840   -0.83175998622070    1.56817894875755
C        -1.99221530682652    1.35256777923419    0.56296568661979
H        -1.32286792797525    1.46034631574686   -0.29061589056560
H        -2.64613839139517    2.22129464483532    0.60500922168232
H        -2.60788527339497    0.45314818416837    0.41244618605665

