75
CSD_code = SUQSEE | q = 0 | S = 0 | Stoichiometry = C42H4F20N4O4Pt | MND = 4
Pt        6.02281499791225    4.81698798005864   -0.00019134241353
C         5.10208978018244    2.32446022500279    1.35765922722430
C         6.50031072625596    1.86575954249733    2.99400573752974
C         6.89396689772595    3.09631364833616    2.29121547465900
C         8.00100186205739    3.85751923173422    2.61746959510809
C         8.37401181291234    5.00584313930045    1.92093742540354
C         9.49965163363077    5.82800238234518    2.25437717361106
H        10.17761876168622    5.64742474494794    3.06412394446139
C         9.51722010176732    6.84814088540124    1.36439715279914
H        10.21095948803354    7.66265542916143    1.31306891790102
C         8.40314798437726    6.64957104863249    0.48420336232734
C         8.05921301544365    7.50716727584522   -0.56418299785923
C         8.80732698053870    3.41961162389577    3.78263550820805
C         8.30430257034696    3.54471744716744    5.07436361847556
C         9.02601628493459    3.10794104862158    6.17828809767775
C        10.27870544344946    2.52657471913052    5.99249844394328
C        10.79943238289224    2.39404977033731    4.70834408448291
C        10.06077575094368    2.84215326716530    3.61746274202749
C         8.89057836843898    8.69239637664167   -0.86977422270649
C         8.35115534815182    9.97477845273030   -0.79170580919918
C         9.10457413212342   11.10018078866584   -1.10839882489125
C        10.42726149420686   10.94971624238141   -1.51919508869933
C        10.98457386447889    9.67608914712864   -1.60601177234354
C        10.21424362204602    8.56345249359626   -1.28318200594818
N         6.00190840927502    3.32149613412247    1.29080088104246
N         7.71685358174669    5.53065555105356    0.84452241375346
O         5.36180887141633    1.45187340059462    2.36209439086199
O         7.00581386921359    1.28330286023236    3.91015642682015
F         7.10679564353249    4.10630726081696    5.24948658048803
F         8.53256919486951    3.24630750555040    7.40628727812525
F        10.97920607862009    2.10519019293875    7.04124526445821
F        11.99927630848057    1.84498291755646    4.52839492270619
F        10.56080562659874    2.70990318375186    2.38689850789797
F         7.09420883755649   10.12812459417765   -0.37565451712493
F         8.57171736715213   12.31556619251734   -1.01440669832827
F        11.15705983739509   12.01806205630481   -1.82345438789375
F        12.24844764488278    9.52702798727620   -1.99737121000533
F        10.75331197595699    7.34718965279608   -1.38647178518133
C         6.94328551358557    7.30977804676613   -1.35774193158676
C         5.54513069236627    7.76842064813255   -2.99417041319748
C         5.15124095249015    6.53809124577536   -2.29111621306885
C         4.04409959160379    5.77698671369840   -2.61724977021819
C         3.67117402748246    4.62858309469601   -1.92080343455742
C         2.54561846089461    3.80634560195284   -2.25434110083960
H         1.86761181973619    3.98696810953924   -3.06404535181236
C         2.52813298887892    2.78612223209204   -1.36445806885367
H         1.83443862182009    1.97156541853169   -1.31318833850518
C         3.64219673582751    2.98469243341796   -0.48425129331147
C         3.98617776730559    2.12705111149523    0.56408029085721
C         3.23770177648781    6.21494514360944   -3.78234849130374
C         3.74056591495453    6.08987701467492   -5.07414790894088
C         3.01874300530062    6.52675948539418   -6.17796310851884
C         1.76610334953162    7.10817256857915   -5.99198885257383
C         1.24553343786787    7.24063909676709   -4.70776413462745
C         1.98430044052330    6.79244388705402   -3.61699860624213
C         3.15495487663421    0.94168420229690    0.86952811644557
C         3.69454366318584   -0.34062502116934    0.79134294300998
C         2.94126380146790   -1.46615682060226    1.10790815980393
C         1.61854680361222   -1.31589956073797    1.51868540979861
C         1.06107127141873   -0.04235127016575    1.60561175412461
C         1.83126569317558    1.07041775280267    1.28291160281681
N         6.04349258238504    6.31271562959271   -1.29091746215108
N         4.32844667363050    4.10365344726339   -0.84451840443263
O         6.68344367285996    8.18249084610400   -2.36203543432531
O         5.03939302363553    8.35111058604910   -3.91004050928451
F         4.93802080803349    5.52823449008531   -5.24945193061620
F         3.51203482418646    6.38844537949708   -7.40603129722372
F         1.06549704753295    7.52965438214548   -7.04062597524133
F         0.04573441038241    7.78974382413119   -4.52763546715247
F         1.48442329137389    6.92463528968193   -2.38636577220465
F         4.95151927307632   -0.49376817398226    0.37530744225548
F         3.47427603235816   -2.68146649261212    1.01381079943358
F         0.88887569790810   -2.38436873334920    1.82281944078914
F        -0.20283143339254    0.10651141516661    1.99695362591969
F         1.29203633864492    2.28660057521186    1.38630317613129

