45
CSD_code = SUQTIH | q = 1 | S = 0 | Stoichiometry = C20H18N3O3Pd(1+) | MND = 4
Pd        9.29382025039830   10.26008576757226    8.16112133308762
N         9.67030509233511   13.03582610321405    8.55521792955984
H         9.93633101213078   13.93822458525555    8.92832056683599
N         8.27609657492731    8.78810575315427    7.16935820204209
N        10.23759584202197    8.66371518209616    8.89855181917218
O         8.41830698952840   11.81556153165226    7.15898990748130
O         7.79040335042498   11.62614154580628    9.99894513671723
O         9.42308796377571   10.56177726680870   11.14729818318941
C        10.06084259199574   11.84167950374754    9.25888501231713
H        11.03272701901276   11.95166211617603    9.74325505495652
C         8.97320264697649   11.36532274749389   10.15267918034014
C         8.69948924180421   12.93863731269763    7.64680977979577
C         8.40809008364878    9.98150817416633   11.96481447085751
H         8.92704316276492    9.38612048441892   12.71093662704895
H         7.74726431142395    9.35528593945966   11.35904334532969
H         7.81479339952142   10.76291139305424   12.44184539889685
C         7.48386547155489   14.13434039560729    5.86727715037226
H         7.57538920923740   13.23841846678509    5.27249548350661
C         8.03442408625317   14.15181342864080    7.14974581723058
C         6.85064801780667   15.25489695591986    5.36646945467383
H         6.43362149354874   15.23796884266255    4.37146785244828
C         6.75042334967099   16.39901069364942    6.14259472985862
H         6.25393891221092   17.27409259711896    5.75279021660295
C         7.27922897115640   16.41783807915827    7.42393930662230
H         7.18746342558843   17.30435744302550    8.03218931679602
C         7.91992371116610   15.30262351817858    7.93036811738110
H         8.29339071050611   15.31987267844864    8.94348473149780
C         7.30162461764459    8.98247898860886    6.28795931420172
H         7.05675782247869   10.01531588918917    6.06291998443123
C         6.63343508200439    7.92544277582083    5.68896651707123
H         5.84577885014047    8.11464556138345    4.97825816709138
C         7.00000796059789    6.63034944264823    6.02500963752122
H         6.50176783425887    5.78453925493197    5.57763133215781
C         8.01669597943489    6.43222167396819    6.94487075758086
H         8.31046937977989    5.43122598628979    7.21303369724408
C         8.64647091435229    7.53933107481741    7.51131366293651
C         9.74241075911224    7.47240749361276    8.48906072761090
C        10.26731890390271    6.27448374127355    8.97024874280906
H         9.85937987978799    5.33245384656890    8.64424622625126
C        11.31794023910245    6.29757076220966    9.87035356261932
H        11.73204010452519    5.37744400360570   10.25108895143028
C        11.82746352845150    7.52554073833011   10.26436487480345
H        12.65200811437238    7.59240266175079   10.95475649497194
C        11.25812128596032    8.68058403273236    9.75478250449280
H        11.63099185282615    9.65206356629865   10.05154072025047

