92
CSD_code = SUQTII | q = 0 | S = 0 | Stoichiometry = C37H48Cl2IrO3P | MND = 6
Ir        5.22005122429832   14.71669170620729    1.19597095031780
Cl        7.58496378942805   14.50748034575403    1.33223094852543
Cl        5.12096014018886   16.66451471160874    2.43051690347662
P         2.94637856418601   15.33412401385194    0.90888175861600
O         1.74750892708736   17.30520833739280   -3.25163872120451
O         5.53546414490642   16.30748329663744   -0.62341341231070
O         5.62975212588287   12.42291054224356   -0.68791314828160
C         5.09017314566891   13.46328686905502    2.84148241531986
C         4.32556336542236   12.30403535185783    2.88291932986665
C         4.25528049242884   11.54019208941375    4.03820058984774
C         4.95634478741414   11.91668215802310    5.16840933579862
C         5.73591304678227   13.05756568011947    5.13049263115998
C         5.80568947221689   13.82405763874665    3.97740646135226
C         1.83968992537834   14.96073243527530    2.36921538683269
C         2.42628239821014   15.31063104788015    3.73942804785086
C         1.61399489560499   14.62028682738895    4.83144668947065
C         0.15440081647491   15.05998598165906    4.77060804838682
C        -0.42940131477943   14.76906937348453    3.39216713630853
C         0.39158252552930   15.45101745860004    2.29684913568277
C         2.16431549210523   14.39129550308316   -0.52015112933987
C         0.89127929729843   14.94757011598470   -1.15885262569141
C         0.61984305961846   14.18974504458095   -2.45857663449619
C         0.43943863405729   12.70048218693194   -2.18070147275814
C         1.66983912929325   12.13730845351635   -1.47618998841985
C         1.95282395324304   12.91495310579046   -0.19212903400013
C         2.74551524909201   17.08072629581148    0.40810933768750
C         3.03662027932276   17.57285020156894   -0.87341123487416
C         2.82129172548818   18.92237097711518   -1.14475351185316
C         2.36505717435600   19.79237614934566   -0.17503132507238
C         2.14060073772821   19.32157376713209    1.10704778230402
C         2.33394363140616   17.98366488609396    1.38720299049781
C         3.61615389582493   16.75891474021863   -1.96381642612774
C         2.93938614295114   16.65622317631311   -3.19331558887788
C         3.48921204965642   15.89182324607465   -4.21580832321808
C         4.69264558384243   15.23498737436524   -4.02211935365137
C         5.38803569105093   15.36217080622982   -2.83696727405212
C         4.86668662762808   16.15408545036499   -1.81871385200842
C         1.01302119461198   17.38412758955143   -4.46586217251560
C        -0.39230956960906   17.82693305713066   -4.07211516212485
C         1.65339411552442   18.38244231567263   -5.43014948884299
C         6.66016135998053   17.21064221158379   -0.59068093892172
C         7.84513944571831   16.72378281667437   -1.41532723837477
C         6.24072283765211   18.61995348299687   -0.99149230595677
C         5.40077238914262   13.26061356064617    0.05924248907371
H         3.77612438503419   11.96758797038012    2.01580815511164
H         3.65206727620234   10.64359359346916    4.04443103300427
H         4.90208943537341   11.32069678031945    6.06733234902188
H         6.30086580179954   13.36017826622766    5.99959790965085
H         6.42546390534228   14.70724963622161    3.98288753169101
H         1.82862638043109   13.86088594939876    2.32063659887017
H         2.40878214131936   16.38612640676043    3.91559552906062
H         3.46341751993582   14.98650649145361    3.79930646646502
H         1.68064441495152   13.53746535972238    4.70210152950576
H         2.03711779198571   14.86371610543696    5.80726506940080
H         0.09022277917553   16.13182917801247    4.97147687038792
H        -0.42670731255031   14.54227060014396    5.53618674484166
H        -0.43361673687176   13.68920974498662    3.22333673888209
H        -1.46323917537234   15.11873983501149    3.34305011140703
H         0.34256302695040   16.53130499902751    2.43554326422298
H        -0.05194509189373   15.22624178860043    1.32903221620000
H         2.95270053167164   14.43395530616890   -1.28439586761715
H         0.03366073585004   14.79878990438839   -0.50197483057971
H         0.98204293522487   16.01563043992586   -1.35761493675732
H         1.45879910891600   14.32893747005885   -3.14381220051391
H        -0.27767084186629   14.58897470273059   -2.93651492990272
H        -0.43942363481744   12.55403640806994   -1.54806453947399
H         0.26885211666031   12.16483664105962   -3.11648699374499
H         2.53532792700004   12.21000122893905   -2.13865345397105
H         1.51473319369816   11.08211322235084   -1.24283280687253
H         1.10749291011617   12.79525568097005    0.48866263961055
H         2.84702047032850   12.51216102254614    0.28749212529430
H         3.04556412610413   19.29171096127838   -2.13451350853807
H         2.21383276867668   20.83541650547281   -0.41063230388426
H         1.82447712812356   19.99514247802499    1.88962144823921
H         2.20023404587783   17.63669911581893    2.39703768460434
H         2.98429327470816   15.78682173077163   -5.16277068356754
H         5.09350141835832   14.62181987430493   -4.81488864809516
H         6.32091424370808   14.84418468815413   -2.68779055313446
H         0.95729424264944   16.39041142901303   -4.93297267182561
H        -0.34741039224878   18.79550044710873   -3.58133150986811
H        -0.82973548944884   17.11166852015770   -3.38077166226278
H        -1.02128946748122   17.90090842383380   -4.95428252078973
H         1.08485696923442   18.42159955860929   -6.35497032276977
H         1.66120125470823   19.37219196066785   -4.97940948355561
H         2.67825966744583   18.10083360212293   -5.66016676264191
H         6.94217907165221   17.20337594197091    0.46661515909690
H         7.63820553034611   16.78409072482108   -2.48244676102713
H         8.70446618335520   17.35099818179777   -1.19363843168672
H         8.09472820662342   15.70167087551919   -1.14017371920388
H         5.43001779423044   18.96980957479201   -0.35648667406389
H         7.08733780812249   19.29103260844115   -0.87549721721125
H         5.91427702172796   18.64404568515512   -2.03092118661565

