83
CSD_code = SUQWAD | q = 1 | S = 0 | Stoichiometry = C34H46AuN2(1+) | MND = 3
Au        4.61291695141354    1.85521126188360    3.74845180893397
N         5.22388209640332    4.71864906010724    2.81650464247307
N         6.89782845079392    3.80111542042133    3.78597952372813
C         3.82100119100851   -0.17096612682556    3.49033941591594
H         3.19945457468741   -0.13549909821626    2.60815180782020
C         3.45961600304841    0.27899267087639    4.74239954068633
H         2.50962258664724    0.72361647385310    4.99854880812401
C         4.23658567933997   -0.54334630298495    5.73596082308960
H         4.31657545710822   -0.13836578699063    6.74087918661157
C         4.82362253729380   -1.27409680041319    3.70283200825664
H         5.44020548219686   -1.53838472271799    2.84818050539526
C         5.53583243681072   -0.83005815862334    4.98165649707397
H         6.11486832843867   -1.63000264130693    5.43630377880232
H         6.17595664290156    0.04375708497852    4.85374036828520
C         3.55523905809738   -1.93340874801496    5.65334849531396
H         2.47626357550394   -1.86194907914260    5.77811467149790
H         3.94562908405738   -2.57915514919902    6.43736300477620
C         3.95872040306621   -2.43559515240348    4.25594078274424
H         3.09984731792605   -2.63782306699589    3.61850876227424
H         4.55826256654600   -3.34175157740528    4.31523648323179
C         5.62437382854878    3.58856853735227    3.41683668892433
C         6.23627983191117    5.63686225901494    2.80749620028335
H         6.12163920442935    6.60824716198114    2.37383411579156
C         7.29753726106121    5.05543476481528    3.42158696016781
H         8.28143771773006    5.42385739915886    3.62410126465439
C         3.92081916943325    4.91695199838140    2.27559972279012
C         3.68255450972596    4.56377374846720    0.94605850235543
C         2.39862197926548    4.74372979623734    0.44852566117113
H         2.17990153169075    4.47718490358759   -0.57283548843288
C         1.39612080548700    5.26147738837325    1.24638425720571
H         0.40478509190911    5.39637457522536    0.84234140424904
C         1.65623498731362    5.60770374257886    2.55854612492057
H         0.86372582141492    6.00985270471694    3.16879517366335
C         2.92455352254677    5.44343589944728    3.09975095697004
C         3.19512074707467    5.80581289756216    4.54129686979581
H         4.26403031120165    5.69194040778904    4.74980368043868
C         2.43537984145422    4.85362491590513    5.46850712639151
H         2.72766651254938    3.82195947348297    5.27286436283664
H         1.36310499400711    4.94307706395972    5.31816453344126
H         2.65749111162378    5.08668643421689    6.50672690173174
C         2.82011437734005    7.26119721725514    4.82639015440273
H         3.33818282000195    7.93024467852284    4.14301219512332
H         3.10012151589688    7.52339671692246    5.84363263741029
H         1.75153343712938    7.42080926105048    4.71760170696671
C         4.76894813334004    3.98027198312010    0.07310561375727
H         5.72721370395557    4.03926155343174    0.59978415139046
C         4.91182252312584    4.75909714384019   -1.23568749921025
H         5.05924078824534    5.81800634971230   -1.03642636277604
H         4.03020099096875    4.64682031989303   -1.85949546135497
H         5.76930571881193    4.39081828139304   -1.79334207279423
C         4.47546861888538    2.50301021976216   -0.20126781910855
H         4.41830025071322    1.94824529643614    0.73542722192703
H         5.26430982144169    2.07223429187936   -0.81248697332748
H         3.53154265979841    2.39016581181818   -0.72740610221045
C         7.68345366196497    2.82119804223076    4.45786136998888
C         8.42234004138754    1.91373253029038    3.69555790398483
C         9.13336030258893    0.92907869577078    4.36944065888361
H         9.71137440294234    0.21146036165976    3.80992143232210
C         9.10863674480565    0.85641785222814    5.74926412709461
H         9.66529077215481    0.08337271861788    6.25589271475922
C         8.37852348073166    1.77139030992020    6.48381702407320
H         8.37248269484553    1.70498309490262    7.55970866951053
C         7.65345176744486    2.77428137919034    5.85337546242019
C         6.85007535349535    3.76345687748029    6.66464574147525
H         6.44638324595531    4.53371144260263    5.99940558112926
C         7.72655578025851    4.46334883853540    7.70532479374540
H         8.59847570174658    4.91001901695905    7.23304423816208
H         8.06733485595536    3.76702071533022    8.46575401046377
H         7.16011269730589    5.25036536005100    8.19672481896813
C         5.66894172383841    3.05650274667510    7.33427532510690
H         5.01682029680648    2.61168329407222    6.58246251814358
H         5.09035154224549    3.76867292282267    7.91681858139379
H         6.01759186831448    2.27095257680576    7.99932252795072
C         8.44742120819586    1.97740676564678    2.18646404187751
H         7.89967078862296    2.86432854375037    1.85171374044166
C         9.88210444587005    2.09555665563479    1.66791935081287
H        10.38585681879810    2.94300412158426    2.12723381432000
H         9.87561002758190    2.24144037449093    0.59071530107305
H        10.45396700250737    1.19829024012453    1.88499236326724
C         7.75207686925713    0.74882543671661    1.59484531964399
H         7.76887371463064    0.79877115833771    0.50923264274624
H         6.71402282347792    0.70559514659262    1.92406199235901
H         8.25232480296097   -0.16474197718489    1.90443660929503

