70
CSD_code = SUQXEI | q = 0 | S = 0 | Stoichiometry = C30H33N3NiO3 | MND = 4
Ni        4.77671164335591    5.21113196227298    2.88675083373770
O         4.54596430316391    8.92112855606123    3.97149249958027
O         5.14964286920352    3.91351732799561    1.61872531497950
O         5.97750654014070    1.87640789162246    1.37313476587107
N         3.85093464965616    6.38005875658853    1.61014195742842
H         4.15038501497190    6.07227487725691    0.68058912863747
N         4.55208245010633    6.61028662302755    4.07577068718679
N         5.50821975187098    4.07145528501373    4.13272871764116
C         2.25439772558942    3.92384505346861    2.28703563795402
H         2.70103765447549    4.20678021292615    3.24665825537547
C         1.95599877569445    2.59595605323293    2.04240452451986
H         2.18463754934848    1.84577392767141    2.78456025035464
C         1.37152581077249    2.22498722625710    0.84295192652449
H         1.14670005129614    1.18714775016410    0.64960442558590
C         1.08362576901228    3.18658545305572   -0.10864276432211
H         0.62944172084300    2.90253684037841   -1.04625287478652
C         1.39030784136302    4.51510357915025    0.13221201803892
H         1.17319559097103    5.26066687914344   -0.62041672643704
C         1.97917722506804    4.89528678710389    1.32865847325310
C         2.36897915711288    6.33689399410748    1.58333938870724
H         2.01220174992117    6.95395954085144    0.74498416316734
C         1.70543692088001    6.84284324879921    2.86513847671337
H         0.62583125968694    6.78100050901040    2.74279633355499
H         1.96787945440853    7.87478643028127    3.07921155701666
H         1.98742425788477    6.23939389054008    3.72379889404463
C         4.50434559867609    7.67113558495007    1.91244272958455
C         5.96684717965943    7.55666920551380    1.46066281120745
H         6.55024320367256    8.37826204487172    1.86952881211185
H         6.03623770979461    7.58240047534832    0.37397275720733
H         6.39264717210171    6.60964264868372    1.81659355316478
C         3.87424738644743    8.88353868043419    1.22877503050254
H         2.84627101825035    9.04639939029423    1.53730475994016
H         3.90752305042515    8.77054955184271    0.14659101396032
H         4.44245217804683    9.76698835997631    1.50789271065489
C         4.51390174444820    7.81985864290752    3.45302667038281
C         4.36673694296724    6.46684996656633    5.43055327871046
C         3.76370116586518    7.47453098331550    6.20346043760269
H         3.49163115408724    8.39942062966736    5.72471595996629
C         3.51417704883729    7.31170234317809    7.54466109150298
H         3.04159472438895    8.11003992538836    8.09722262905506
C         3.85514011859256    6.12600076703890    8.18526828450945
H         3.65411336424211    5.99169615980446    9.23685586028600
C         4.44781396056131    5.12198772431736    7.45966686026333
H         4.69916358240955    4.19568076424079    7.95362644474816
C         4.72170900626420    5.25485109139226    6.08847718121121
C         5.37180259977649    4.14604839676686    5.41563917178990
C         5.90080586946708    3.06128614708576    6.28933931325361
C         7.07469705057772    3.25328789154365    7.00921807821841
H         7.58645050651306    4.20322404408189    6.95137599484494
C         7.57689101575743    2.23600064965658    7.80124119279225
H         8.49149464024471    2.39036117076382    8.35379669080188
C         6.90859053813578    1.02620037934887    7.88645471922376
H         7.30333357229239    0.23281690152621    8.50293084991977
C         5.72941261629151    0.83751243174815    7.18532964228758
H         5.19984552529638   -0.10059300089688    7.25703397275774
C         5.22534739000405    1.84946971971209    6.38764580631363
H         4.30082072377641    1.70695833779650    5.84640471300173
C         6.22539446853211    2.95854692031645    3.51851257561651
H         5.99931192460818    2.01531135834879    4.02912704540051
C         7.75466754385099    3.18509636998860    3.58572093189543
H         8.01180996639495    3.37918097614268    4.63490505587609
C         8.16018895974571    4.40248841175983    2.76000400973764
H         9.22135091618632    4.60825700968959    2.88367531269329
H         7.60061958964746    5.28163068081221    3.09271612066949
H         7.96212213732062    4.22863961208339    1.70437291209326
C         8.48888093140235    1.92902514190395    3.13039627482927
H         8.14990967727005    1.63345230362570    2.14125356253415
H         8.29811160127853    1.10735300803190    3.81776763401581
H         9.56037593948931    2.11257082169169    3.09883576951582
C         5.75462124960390    2.86776072076262    2.03622790902599

