66
CSD_code = SUQXOR | q = 0 | S = 0 | Stoichiometry = C30H30Cl2OP2Pd | MND = 4
Pd        3.67466285348910    5.83292999556012    2.51011389556525
Cl        3.68464170129503    5.49681793939316    0.24625705283328
Cl        5.04777013978501    4.09900955715078    3.07196005392245
P         3.27308150884202    6.14321671174593    4.67376723376708
P         2.47323443435616    7.53549171190807    1.79360935605383
O         1.80897571914894    8.42359850114121    2.98901631445327
C         2.65215123077506    8.81619506919775    4.07152517389710
C         2.57664435689943    7.80578847235285    5.22634702210649
C         3.31156411109192    8.34587954713583    6.45410578257634
C         2.76139551067737    9.70400926005398    6.87669142535812
C         2.91570477003567   10.70028119860652    5.73408015200918
C         2.16826885460716   10.19901103889569    4.50524414187988
C         1.01069766549601    7.36426757830952    0.75614290642659
C        -0.19460055310182    7.02350413699383    1.36021111562765
C        -1.31715764858083    6.81301803720768    0.58102148853700
C        -1.23410189973174    6.92699493232310   -0.79774847423045
C        -0.02675544831468    7.24379822675446   -1.39965042806306
C         1.10073204247274    7.45684945410599   -0.62732102648240
C         3.60175820447651    8.72604361969371    1.00378979052167
C         3.13320560672120    9.89464036739729    0.41553863228261
C         4.03351610360025   10.80824412972288   -0.10266504087935
C         5.39551278923323   10.56143579499383   -0.02516177298034
C         5.86474947516593    9.40445698052012    0.57717553349203
C         4.96950903764816    8.48657683622802    1.09718416984063
C         1.92289864813966    5.00696547962145    5.10194651188427
C         1.50843180155613    4.11237566595145    4.11544706741159
C         0.46731321767836    3.23668927311302    4.36875808067044
C        -0.16462878561086    3.24950832829348    5.60178922322147
C         0.23603307155119    4.14514785438688    6.58084463624208
C         1.27240454335840    5.02710035313469    6.33381293905142
C         4.67157919070872    5.81025465985099    5.77741883787995
C         5.88495128554066    6.35064011783394    5.35411271861257
C         7.03499722875892    6.12992603546977    6.08390726151911
C         6.98107583087889    5.35529435675103    7.23321407235054
C         5.78182139588455    4.79811296057138    7.64175132582564
C         4.62291053146605    5.02050755441012    6.91666522337834
H         3.69860368314526    8.88127206439429    3.72412470638733
H         1.51575717546466    7.65452684728900    5.45951494299371
H         3.22300704540278    7.63238239470455    7.27629326690313
H         4.37464921392789    8.44929214684656    6.22209421753177
H         3.29909451252871   10.05662020070979    7.75831066037319
H         1.70571453309881    9.61024004341514    7.13995760157652
H         3.97453420255850   10.81919261933598    5.49477050033549
H         2.52444188461623   11.67582419699478    6.02580301513047
H         1.10015222306893   10.12633217288632    4.72096915515519
H         2.29369425840682   10.88753793196610    3.66765908759119
H        -0.23935579987594    6.92593558849879    2.43655719265403
H        -2.25596381166463    6.55057702475123    1.04677127650155
H        -2.11081919754452    6.75739501362041   -1.40546287402115
H         0.03816405925688    7.31680278491769   -2.47512765335197
H         2.06759073383701   10.07445946844174    0.36694163499531
H         2.05280864042219    7.67714132894713   -1.08759461036023
H         3.67431698847176   11.71354738540503   -0.56999894215870
H         6.09455377492249   11.27464896571281   -0.43639046456044
H         6.92679956613935    9.21825710677305    0.63678735626640
H         5.32852547187529    7.55605835266363    1.56065109227400
H         2.01616898114444    4.09706646091160    3.14004937793421
H         0.14901045321014    2.54334897979510    3.60475833537332
H        -0.97402820308333    2.56291529795524    5.80081068991714
H        -0.26225398157707    4.15671694906456    7.53941973254860
H         1.57360254960861    5.73436698472205    7.09493456589965
H         5.91286400670633    6.91502930208361    4.42306006003498
H         7.97645034152326    6.54173583747660    5.75199998128276
H         7.88169750363161    5.16964632302407    7.79937448237065
H         5.74861744602861    4.17597042087545    8.52415023552841
H         3.69425321882171    4.56197806916172    7.22380898026171

