73
CSD_code = SUQZUB | q = 0 | S = 0 | Stoichiometry = C28H40N2OPRh | MND = 4
Rh        9.76857882285528    4.84144748138182   13.70720825119424
P         8.60263411983936    4.01294474953168   11.95322375764632
O         9.37656419282708    7.77792240616518   13.32600857433120
N        10.05734839259744    2.95072373674424   14.07589198933641
N        10.95428544847886    4.99338520469294   15.34827084902075
C         9.53109394699494    1.93393080876941   13.31131200293124
C         9.82384871616627    0.58331673115188   13.70481108675544
H         9.40970898050573   -0.21615331255577   13.10902023028406
C        10.59984012142123    0.32140288536738   14.79051191599671
H        10.81631936413981   -0.69679877213832   15.08037139161549
C        11.12928710444600    1.38431660411660   15.54600354888337
H        11.74987875178933    1.20663092072033   16.40884853055931
C        10.82531765697550    2.67274958713605   15.14306577202146
C        11.30583851428269    3.85342661094598   15.81991580467312
H        11.95568068385719    3.76209129870719   16.69153246987909
C         8.75971863014379    2.26873537517083   12.22655329938964
H         8.33837663955988    1.51600731767487   11.57902720246447
C        11.35050718229117    6.20016680074524   15.94648253010379
C        10.72677853697778    6.63437005423698   17.12600578828437
C        11.10805149220483    7.86135100899190   17.64652439876752
H        10.64133390648671    8.23483203409933   18.54321058179946
C        12.08778585593488    8.62285646363993   17.03497018575482
H        12.37810371270182    9.56888724175859   17.46728068887048
C        12.32151081071627    6.97530639123926   15.29997851735769
C        12.68770553520911    8.18475941962307   15.87020918171423
H        13.44385181143039    8.79373485612457   15.40155692216168
C        12.95244208466790    6.46281930191349   14.02527183382215
H        12.21316075990517    5.81023666838849   13.52130474421352
C        13.31351024187331    7.58023310765747   13.04878843775439
H        13.57618909816352    7.15281435143903   12.08349297380595
H        14.16476633744895    8.15754421796839   13.40157166564707
H        12.46756375837264    8.24907963700409   12.90975765171657
C        14.18489458727585    5.61668993392627   14.35678325031520
H        14.64084689254364    5.24032037391402   13.44365409898746
H        13.91525779904501    4.76695541188697   14.98085101774714
H        14.92019788071672    6.21550929941911   14.89112067878455
C         9.62289421293099    5.80003405757996   17.74388712949990
H         9.93343398294387    4.74849836726436   17.73083598100940
C         8.35255434119091    5.92553622179781   16.89468521111460
H         8.51889479280490    5.52892694897863   15.88344237692026
H         8.05757890205123    6.96916260357418   16.80961371500650
H         7.53834679339059    5.36626713724434   17.35010160598072
C         9.31991065233396    6.16511359319686   19.19580880445567
H         8.85061358909926    7.14354361099125   19.26362649503338
H        10.22800072405085    6.16465234051362   19.79489464875054
H         8.63200830473895    5.43498572187033   19.61733052034929
C         6.74187815760795    4.33731840817119   11.90804915090121
C         6.36829270347530    4.25373665139743   13.39183194334771
H         5.29582367693550    4.38370905876869   13.53141590232629
H         6.89168565714054    5.03204204898675   13.95401844575317
H         6.65532025340107    3.28219469982044   13.79596148099555
C         5.95613652803873    3.28248489138819   11.13498178735949
H         6.20864640262489    3.28519583127595   10.07880861903760
H         4.88891814057634    3.48384918824323   11.22746536321391
H         6.14815427123866    2.29106747082414   11.53727638286713
C         9.44481349268919    4.33111304938832   10.28608777781012
C         8.79083181515045    3.59981414167832    9.11980294636787
H         7.85531936993411    4.07551501338137    8.83410015897655
H         8.59602203988683    2.56056280860732    9.37597600049871
H         9.45260574790777    3.61768734849114    8.25373760252089
C        10.85672630791936    3.78517280349418   10.52432409798137
H        11.51792536227615    4.04883487914275    9.70000783688152
H        10.84104686891814    2.70171554244255   10.62609736914157
H        11.26308840115806    4.21267079990499   11.45033591841331
C         6.42485533047532    5.73424509552982   11.38519526892262
H         6.51987576107711    5.77939914272554   10.30269232583673
H         7.09436893069037    6.46801251857504   11.83176078039761
H         5.40045830413277    6.00428349833246   11.64158377038297
C         9.55253197372762    5.82559610901020    9.99461063073860
H        10.19835615430109    5.98720147068762    9.13149408588480
H         9.98592633062422    6.34254090306353   10.85008634839905
H         8.58546655591607    6.26792422719732    9.77703441009652
C         9.51901079573742    6.63934558878662   13.44514528219817

