90
CSD_code = SURFER | q = 0 | S = 0 | Stoichiometry = C45H39NO2P2Ru | MND = 6
Ru       -1.41421818854258   10.32359046672543   10.75047173281754
H        -1.03088414462367   11.72945003259313   10.24379748497804
N         0.60769253015621    9.93654051181608   10.91291028518594
H         1.24403955544075   10.68681343338647   10.64415190866120
C         1.26224188553007    8.86385867495224   11.30870488680510
C         0.62079056266662    7.64757970954628   11.74783506871251
C        -0.80220287758878    7.50440948859500   11.78617664324055
O        -1.64103585644379    8.36646065027416   11.46027378914403
C         1.44482083562501    6.57179387898006   12.14870735557814
H         0.98039865680611    5.65617591182999   12.47985698048612
C         2.80882794279571    6.64043974382691   12.13512211146860
H         3.40333601429446    5.79578010407817   12.44955052047772
C         3.43696180215102    7.82116187111503   11.70758085634283
H         4.51655557049585    7.87944441239574   11.69565291777877
C         2.69058891751363    8.88565630471551   11.31175317158656
H         3.16937665092594    9.79928427786901   10.98120574975984
C        -1.40904635000392    6.19428989262356   12.26262322460468
H        -2.49242765371635    6.28812889941267   12.21868439258410
H        -1.11699223706353    5.98052277546927   13.28873260502789
H        -1.10252352651241    5.36843831026137   11.62394498270139
C        -3.20481665884152   10.70529887301251   10.59671370233890
O        -4.32526614747500   10.97648256456180   10.49196072702864
P        -1.29521656053162    9.43032299975283    8.61814343864757
C        -2.09596614338109    7.79867608873743    8.40756361871730
C        -1.61811715623545    6.79436344187105    7.57096581785891
H        -0.70403478601367    6.93665843075690    7.01113094872347
C        -2.30600082564590    5.59893849344976    7.45842328336670
H        -1.92528613511744    4.82306859938198    6.80945478248092
C        -3.47505827999367    5.39357576134130    8.17177949348735
H        -4.00418246022245    4.45586708294975    8.08394806756472
C        -3.96368846634441    6.39421665081581    8.99560553264305
H        -4.87856925172455    6.24059798781048    9.54948759581548
C        -3.27966584467404    7.59002062989818    9.11007313287889
H        -3.65416717481617    8.37495047682303    9.75513848250946
C        -2.05159517080845   10.31415912164237    7.20839677008990
C        -2.07515654946087    9.74210193706912    5.93940018622539
H        -1.63823708072210    8.76684288304713    5.77867759145449
C        -2.65640155662859   10.42007724235857    4.88482496100567
H        -2.67241120035586    9.97216300160486    3.90168043023555
C        -3.21957781722217   11.67064462513291    5.08649951510559
H        -3.67536876866193   12.19603569229305    4.26004308749614
C        -3.19607413997031   12.24424333393751    6.34630737015340
H        -3.63236679989420   13.21941270908074    6.50519700629400
C        -2.61396392828633   11.56894601664636    7.40518099673832
H        -2.57884883768159   12.00747386407515    8.39445263465618
C         0.39840276989751    9.15434437973381    8.01266802551097
C         1.03368157411089   10.14722725803171    7.27305068768621
H         0.47990695252150   11.03078343951827    6.98461353669911
C         2.36268701402054   10.00452262320814    6.91771664187066
H         2.84979211252109   10.77565347125541    6.33836483257338
C         3.07188960188173    8.88091401944734    7.31082919593172
H         4.11122936436216    8.77393263033714    7.03669113115842
C         2.45062427073380    7.89930244567814    8.06564803317654
H         3.00465662401124    7.03045088985809    8.39002877187481
C         1.12152875211204    8.03571570115432    8.41993063827361
H         0.64331927004918    7.27528097319187    9.02349240639972
P        -1.33891542896036   11.01703906119099   12.95775876417250
C        -2.15930353852809   12.57115081110830   13.45946755786755
C        -2.24621489636666   12.92607365546542   14.80288516569913
H        -1.82289121076908   12.28090328348121   15.55971645485142
C        -2.87296778012654   14.10188752549317   15.16934669718528
H        -2.93781003474539   14.37341950417545   16.21315813507151
C        -3.41893646507429   14.93085565911139   14.20163217827255
H        -3.91142820247165   15.84718388255722   14.49249239194920
C        -3.33147120719181   14.58342032855626   12.86430674998504
H        -3.75467754187519   15.22883694167454   12.10870946104552
C        -2.70314192635815   13.40728429471963   12.49271487182902
H        -2.61836080987587   13.12557970127879   11.45075711175286
C        -2.11777410935376    9.87497360340998   14.15598200791695
C        -3.29345713016357    9.25314797174429   13.74390641287729
H        -3.67338102984322    9.45204063250649   12.74948942325268
C        -3.96283770343829    8.38624402992484   14.58712843124407
H        -4.87170937362339    7.90493825794069   14.25589970915590
C        -3.46717916959390    8.13441077150148   15.85596384870009
H        -3.98448121789450    7.45288768647532   16.51546143900366
C        -2.30732895876317    8.76161805827257   16.27897363627760
H        -1.92233946232491    8.57400586591780   17.27127843339630
C        -1.63442703341899    9.63043378428129   15.43774307258328
H        -0.72896619354632   10.11072947553660   15.78224272075105
C         0.33841743827721   11.25995043532393   13.61974367128659
C         0.91992839043494   12.52336567234173   13.57315299183482
H         0.33305175562238   13.36604217505600   13.23289059327752
C         2.23858485538642   12.69475749623786   13.95338772677736
H         2.68352482256387   13.67887911682110   13.92096670991906
C         2.99142372387299   11.60713730299493   14.36601495129303
H         4.02271224858092   11.74253957326772   14.65749377574294
C         2.42410286588879   10.34353787442438   14.39439671368095
H         3.01227831979011    9.48980899855087   14.69821866120055
C         1.10535448382018   10.16791001079178   14.01918097706155
H         0.66984086502483    9.17722086762279   14.02711881031682

