92
CSD_code = SURFOB | q = 0 | S = 0 | Stoichiometry = C42H44NO3PRu | MND = 6
Ru        9.60578650969104    9.85201919043988    4.27889811659151
P         8.11030502612680    9.69136121708182    2.53360100574894
O         9.70552287804927    7.72646439755814    4.40735886264779
O         8.08863414733452    9.72493485147550    5.68046590695592
O        11.95934571313669   10.34004175229739    2.50767924291397
N        10.81478465775778    9.79648955817257    5.93571519951078
C        10.38572243000036    7.00120968293574    5.15106348561654
C         9.86323238455468    5.54793650842030    5.27582231851237
C         9.95883460672465    5.01637101975340    6.70927440281664
C        10.58822231022797    4.64023387711777    4.27312368135160
C         8.37571104386427    5.55437823512442    4.88865289166920
C        11.54176305433894    7.45962464289586    5.87975349130785
C        12.57389402111960    6.57361895367763    6.25583374569465
C        13.64238455669328    6.93492307385396    7.03304688753091
C        14.73298191442766    5.96686495231401    7.38360685517527
C        13.69904597640662    8.25679991282655    7.50688974882078
C        12.75451267233325    9.16343077076549    7.13679313979042
C        11.67204125066729    8.83870067167251    6.26813124564762
C         7.72452743320532   10.79057656668950    6.19674573092661
C         6.74201478754284   10.69246723026175    7.36784745150019
C         5.40009564410534   11.33296520411690    6.99103662520206
C         7.34855987389959   11.33700440950388    8.62080437591905
C         6.49687074092038    9.20833882294243    7.66912838971483
C         8.27079416949610   12.02727568087122    5.65655154936495
C         7.93153805568573   13.33198644894251    6.04356818604290
C         8.54787274670418   14.41470544455304    5.45978389959041
C         9.51629689959297   14.21630201518163    4.48057673389082
C         9.84593847093902   12.93708378577781    4.08011419617910
C         9.23725498015969   11.80836923832250    4.63622632208293
C        11.04206972127687   10.12618052220864    3.17442269223467
C         6.35795579905620    9.65055826592244    3.04526225299942
C         6.01587740156583    8.60753403245495    3.90535791394118
C         4.72172686832101    8.47973172879649    4.37010207926602
C         3.75829284591073    9.40520302652313    3.99544726432180
C         4.09571152873850   10.44866067622129    3.15057486543557
C         5.38973472659671   10.57310583336537    2.67074757411842
C         8.12330481606767   10.91997942351910    1.18755943123006
C         7.92940875142619   12.25689839791012    1.53038787250033
C         7.96537025762467   13.23931365073460    0.55960070335307
C         8.20302157163438   12.89821386624893   -0.76266131757889
C         8.40497035092920   11.57273916664879   -1.10762738585466
C         8.36701425746851   10.58454344986335   -0.13898850866110
C         8.23498664202396    8.11627103587525    1.61768815927866
C         7.12797815254665    7.46530888171966    1.08106638752007
C         7.28678140912384    6.26485706291704    0.41133234619661
C         8.54679788414386    5.70815731160113    0.26472974095525
C         9.65453392797937    6.36015012980834    0.78278603686659
C         9.50027195592330    7.55787354474730    1.45713833752219
H        10.98087537537123    4.90048337803745    7.05067554486178
H         9.46760131827728    4.04632410656233    6.76858166079188
H         9.45301675938643    5.69728163981004    7.39119093263659
H        10.48082945353179    5.04545292930850    3.26878484481322
H        10.14337197687234    3.64657426505472    4.29339963498584
H        11.64758688219844    4.54049932596266    4.48741239971927
H         7.81851108072841    6.21847524786877    5.54683194023865
H         7.96371884115014    4.55145416484908    4.98124068884317
H         8.24607163015751    5.88683301592891    3.86087418529095
H        12.55546544374470    5.56741222681482    5.87180980321221
H        14.81719580280324    5.86258151844553    8.46551587198432
H        15.69309684259457    6.32154222623360    7.00870066054476
H        14.53713730015778    4.98616537683822    6.95594504085044
H        14.51492118443114    8.55518053751626    8.15073292383120
H        12.82531194909242   10.18907501101140    7.47740392149670
H         5.48721510117443   12.39945022395627    6.81324263107469
H         4.68532666848231   11.17762476257944    7.79703226537767
H         5.00670880248630   10.87085145076261    6.08747193104164
H         8.28705091303794   10.84676757792330    8.87246352646567
H         6.66397918181615   11.21722682694058    9.45850172960285
H         7.54670136361010   12.39505170573235    8.48861826905380
H         6.04665629478834    8.71621341495306    6.81085669385302
H         5.82865222669533    9.10684566090477    8.52140998215498
H         7.43454720197925    8.70676196525454    7.89957539780498
H         7.18368587770795   13.51369462369941    6.79896602265699
H         8.28194049631643   15.41686678667928    5.76400988350898
H        10.00609826585700   15.06908299512761    4.03137880833571
H        10.58987068464008   12.80451323302937    3.30453217885435
H         6.78208998139207    7.90131316885111    4.19806175127032
H         4.45714216679932    7.66089122523364    5.02444111947424
H         2.74688370536088    9.31175200262395    4.36324509953063
H         3.34638600549000   11.17013410982356    2.85839509980431
H         5.63928528955142   11.38244442468046    2.00016615375582
H         7.76198393856643   12.51691386767417    2.56687869908469
H         7.81348489853585   14.27288229938137    0.83468986944724
H         8.23624613077650   13.66558424869951   -1.52195296326339
H         8.59603113260806   11.30585456446901   -2.13690031106783
H         8.53007765331695    9.55262543660340   -0.41508977130397
H         6.14230529604579    7.89654223013491    1.18832966613594
H         6.42282886548657    5.76149622793663    0.00196663443897
H         8.66519352336909    4.76796548149079   -0.25368999291068
H        10.63944089723972    5.93234415217465    0.66144910919409
H        10.35904276579386    8.06903959078699    1.87538094562260
H        11.04093500651153   10.68147264900816    6.38924938252612

