15
CSD_code = SURHGC | q = 0 | S = 0 | Stoichiometry = C3Cl2HgN6S3 | MND = 5
Cl        0.62279268829109    0.13275270984459    1.91785902729968
Cl       -0.20396482513339    2.88264019210191   -0.03978380536346
C         3.40624560758811    4.65499092554250   -0.06992241799653
C         2.73917002524075    1.46414626206397   -0.33778143985324
C        -1.82169820572415    1.09026533491247    4.42429379877744
Hg        0.97704569225859    3.43357555044757    1.88887273061762
N         4.17049033590629    3.41931343124521   -0.07234098003264
N         3.82213933161177    4.32229822217338   -1.21186667881695
N         3.54535854649207    2.26740963242486    0.05787849137263
N         2.17036552296480    0.40545800416695   -0.54290393899453
N        -2.56195596236985    0.29724973874467    4.83238767513032
N        -1.00939481190928    1.84772923606751    3.79202331243534
S         2.59274345189251    5.54422205201294    1.04005181946389
S         0.88749469356235   -0.41458898491181   -0.03034014534208
S        -0.17783209067188    3.11143769316488    4.27017255130393

