79
CSD_code = SURLUO | q = 0 | S = 0 | Stoichiometry = C39H27CoN12 | MND = 6
Co        3.11022267598731   -0.24724208788275    2.81325950675929
N         1.81439574987879   -1.52385089072391    2.96348976377973
N         1.37523696671415   -2.29148304995722    3.92786817341067
N         0.14422419813344   -2.66527742278887    2.09011422280133
N         2.43769757531729   -0.08040770908919    1.00073243417593
N         1.92048479664028    1.02917159761363    3.43256625840197
N         1.06075327171400    1.87770502856130    2.90855495258555
N         0.98114744858750    2.07039373534564    5.14168136373415
N         3.51761763159744   -0.47894644061541    4.69447336312687
N         4.39086417917879   -1.45417180825668    2.21153664261832
N         4.44249302504981   -2.73311526546927    1.91585770606117
N         6.45344254885930   -1.83610807704726    1.50027246991400
N         4.59468571640773    1.06463367592410    2.61543238636146
C         0.36034218255451   -2.98372153798737    3.38141881428380
C         1.07375482280717   -1.74318893904181    1.85644407096294
C         1.41599808273937   -0.92531418375439    0.73759110921029
C         0.77274158471679   -0.95045834847854   -0.49976320221262
H        -0.03401020947731   -1.65029550192237   -0.64307479465794
C         1.18824154610887   -0.07972958493616   -1.48258049615111
H         0.71107552139078   -0.07040692994481   -2.45070060432476
C         2.23508157182572    0.79308100675890   -1.20284465223635
H         2.58819631001129    1.49418820880743   -1.94168531838541
C         2.82670513209875    0.75707158904575    0.04524711234425
H         3.64057404146172    1.42974287466673    0.27831828768060
C        -0.42349926264847   -3.95274672690032    4.11832602288085
C        -0.15751773428683   -4.19320655742869    5.46509185456608
H         0.64500879414922   -3.65040379974614    5.94115521358387
C        -0.91642175065663   -5.11039914010390    6.16574457472611
H        -0.71024412086884   -5.29424918598856    7.21075887218779
C        -1.94312412445083   -5.79453518008113    5.53337278964090
H        -2.53613724098264   -6.50966224541159    6.08521600327864
C        -2.20935948608240   -5.55936414009924    4.19365668914875
H        -3.01004628354198   -6.09320772326248    3.70170520936880
C        -1.45539281282265   -4.64335125097472    3.48586726194050
H        -1.64812334519677   -4.44541253403380    2.44290569765823
C         0.49877430918099    2.49985555282356    3.95793355479821
C         1.86503007520645    1.14559381028851    4.77756176836136
C         2.73914710860036    0.27478586199621    5.50114437814512
C         2.78961051939295    0.17254476041164    6.88981292585337
H         2.14104030326836    0.80380097440161    7.47493073536474
C         3.65071114309257   -0.74225403587950    7.45702616050766
H         3.70784264295653   -0.85466675488581    8.52907801798086
C         4.43680180986833   -1.52701946847992    6.62102150047008
H         5.11425496793298   -2.26341564769806    7.02181041836360
C         4.33604912637657   -1.36494282189268    5.25189142689657
H         4.92988854799685   -1.97689155006532    4.58851829680026
C        -0.51027727382350    3.52969857568468    3.82281588011933
C        -1.04407262158615    4.13774825131666    4.95693503274046
H        -0.69220737072648    3.82401252460226    5.92751801773665
C        -2.00685182567912    5.11978711684413    4.82609076990189
H        -2.42027820267696    5.58963349161446    5.70702313287215
C        -2.44453026183094    5.50368747535663    3.56835036409755
H        -3.19753211648754    6.27227410016243    3.46895694595884
C        -1.91660344330691    4.90020349333207    2.43763352258980
H        -2.26023342456154    5.19871814004852    1.45742372150261
C        -0.95386030009233    3.91717342970105    2.55987849797077
H        -0.53445997170242    3.43379894281125    1.69055501897092
C         5.69674702570032   -2.95140958000748    1.48783028386149
C         5.60692681266912   -0.91507202169347    1.95505382555368
C         5.74373519247464    0.48449788226923    2.20232414601313
C         6.92649404823274    1.20661011635774    2.03716994995726
H         7.80584667391241    0.68115616897762    1.70260138801818
C         6.92220455136829    2.55747542898586    2.30800086926827
H         7.81986091484871    3.14603296654500    2.19405332443923
C         5.73654432125142    3.15173951595872    2.73054457509638
H         5.68864959174581    4.20609763057622    2.94902102982236
C         4.60447478242727    2.37096547136217    2.86799858751382
H         3.67037086854905    2.81599769471500    3.18073597680643
C         6.17596269750886   -4.25008756532087    1.06305574886547
C         5.32171302607794   -5.35111883186325    1.07905922120353
H         4.30435816233244   -5.21555878587229    1.41287883531850
C         5.78414456137382   -6.58762663875048    0.67224163686031
H         5.12049458013243   -7.44047070796576    0.68366988595443
C         7.09538193039039   -6.73742469394938    0.24819120917022
H         7.45273263141977   -7.70581293437238   -0.07132299457190
C         7.94752656805085   -5.64433789096090    0.23164760860347
H         8.96974080463995   -5.76246978788498   -0.09836958384724
C         7.49343376093195   -4.40418584726592    0.63693282733717
H         8.14220374965717   -3.54175526712092    0.63206180152468

