64
CSD_code = SURLEX | q = 0 | S = 0 | Stoichiometry = C28H32ClIrN2 | MND = 7
Ir       -1.56186424807370    5.41319807647440    6.93713506058216
Cl       -2.11261574800078    7.05062320217205    8.66605392878675
N        -2.74435242427779    4.14461854052116    8.13442676665231
N        -0.21553156194853    4.70914366523459    8.13027971442529
C        -4.05766697713019    3.98720012470163    8.09802904895366
H        -4.56383929482916    4.41650467479320    7.24290307002861
C        -4.75716271359949    3.32832623785425    9.08847016410515
H        -5.82810203163843    3.24576531619153    9.00192800119018
C        -4.07466838065357    2.79422173672763   10.18371489305915
C        -2.69732482077652    2.96310735069560   10.20199170962868
H        -2.11113292331979    2.58643129157307   11.02143779196874
C        -2.05555094103592    3.64586976565043    9.17098803525814
C        -0.61962625164523    3.92411899043294    9.14011037609269
C         0.29332269680139    3.45533522070877   10.07949959392963
H        -0.05659184610984    2.81422440838141   10.86858524214693
C         1.63423612723750    3.81452521550180   10.00162524588728
C         2.00169632469330    4.67521160668482    8.97111226747095
H         3.01845311551425    5.01709289241983    8.87859419685464
C         1.06204220669789    5.11612428102415    8.04873498069222
C         1.28106483117813    6.04417684500355    6.94906296357994
C         2.52052735464764    6.59936120237781    6.63562054381807
H         3.39802525973069    6.33020953287982    7.20510806136646
C         2.63028717882060    7.49938800910397    5.59630764229781
H         3.58929773890908    7.93228447206921    5.35271052615844
C         1.50085376948333    7.84690628833096    4.87236950260022
H         1.58066243600654    8.55558867849271    4.06094377821569
C         0.26683835278550    7.29544786194081    5.17792065217371
H        -0.59387166544013    7.58931249379026    4.59465059134286
C         0.11736606440021    6.38174728384799    6.21742477887355
C        -4.83956712325085    2.08321497251372   11.28315793859876
C        -5.58752152308996    0.88875740130874   10.67378857325104
H        -4.88547210939555    0.19466764820550   10.21556740206487
H        -6.29714638026888    1.20770587169819    9.91553572672679
H        -6.13573029701883    0.36065652135169   11.45045204505338
C        -5.84203132107124    3.07037947310909   11.89767935665753
H        -6.56288291549231    3.41586461691857   11.16199951468833
H        -5.32152252919792    3.93770722482899   12.29811393792789
H        -6.38622836190131    2.59010835026345   12.70745033108361
C        -3.92483539988714    1.56562249156012   12.39610840467657
H        -3.20499169030503    0.84589671593028   12.01182282406873
H        -4.52555780313359    1.06485303145607   13.15191233731895
H        -3.39482066631647    2.38298727389119   12.88001268785393
C         2.68033261996738    3.32807830394390   10.98758717251182
C         2.10331138361296    2.36954154059886   12.03253822844382
H         1.67629900403088    1.48624036323809   11.56231610686213
H         1.34395352964343    2.85914027935316   12.63808475296029
H         2.89848398745304    2.04166306120251   12.69832544633370
C         3.27141044162209    4.54262965788026   11.71716088426987
H         4.00797420740812    4.21492993954353   12.44711059121762
H         2.48785108397789    5.08851287059329   12.23822860907359
H         3.75777338503174    5.22429643539208   11.02529730480726
C         3.78463742745395    2.59206260586142   10.21543469274209
H         3.36790149417883    1.74564101169330    9.67326006199493
H         4.53656809451936    2.22095045200329   10.90786947581853
H         4.27570523159918    3.24627207271339    9.50083976389721
C        -3.60442429584978    6.67547916786771    5.03867683055244
C        -2.52751480971634    6.42595883601471    5.50853247124697
C        -1.28163339825856    3.90969956360444    5.46546781579442
H        -2.28573033841009    3.52663714055663    5.25373166938733
H        -0.89466398698763    4.31537715770841    4.52871398624708
C        -0.39742209189176    2.73591225151457    5.87018490436237
H        -0.75535916492310    2.24706374312143    6.77628723424605
H         0.63303931330652    3.05030473355413    6.02731168444787
H        -0.39575662586510    1.98762195344223    5.07510010466853

