111
CSD_code = SURMAT | q = 0 | S = 0 | Stoichiometry = C42H62FeN4P2 | MND = 6
Fe        0.00007506113898   -0.00006622166237   -0.00021463370461
P         0.69667863691467   -0.83367158665380   -1.90210752192374
N         1.22632014335165   -1.23996562972214    0.98380318649361
N         1.44005355637131    1.39085228374527   -0.03600339841556
C         0.92799204769403   -2.48090568685306    1.44806193836148
C         2.05597878228004   -3.04637427518081    2.15047752412549
C         3.04915465378559   -2.11711195201958    2.08845329338130
C         2.50759145251257   -0.99408696999706    1.36005847052348
C         3.20448532808174    0.17404138258706    1.11964493154869
C         2.69000202504404    1.28758309750409    0.48483571898133
C         3.43173684748750    2.50883403886749    0.27558401641716
C         2.60066304385638    3.34887243717234   -0.40038039327431
C         1.36467547211111    2.62714554874597   -0.59325576281613
C        -0.27340188251047   -3.13795730720193    1.26820016375401
C         2.29000072286776   -0.22363106357274   -2.58432563537681
C         0.99300103929664   -2.64534040211130   -1.97957262057098
C        -0.38354869502822   -0.63452353126412   -3.37513891204012
C         2.06551482691886   -4.37417370455167    2.83300283324964
C         1.37994898899234   -4.29931360855367    4.19944773146006
C         4.41605957620394   -2.17585702986383    2.68588022409773
C         4.46792635620406   -1.44041856650716    4.02723159722556
C         4.81691345852797    2.76747388839157    0.76868261054191
C         4.81682043330458    3.13194938717927    2.25528041316403
C         2.84895115169278    4.75654561044342   -0.83157810148615
C         2.21952913930863    5.75395910088821    0.14409639429485
H         4.22606619598020    0.22392996443606    1.46282926129651
H        -0.36468383444198   -4.12954999005092    1.68298640250118
H         2.52848717298886   -0.72031694825366   -3.52472325190243
H         2.21854655996356    0.85083459182583   -2.74186069304400
H         3.07574352356307   -0.41302364590645   -1.85536967023503
H         0.06864284735913   -3.16412178860594   -1.73392834623202
H         1.32897550737518   -2.94064230997452   -2.97372064258046
H         1.74693485097649   -2.91301051177166   -1.24226571521480
H        -0.52660721670743    0.42600606936072   -3.57192285392289
H        -1.35260562501493   -1.07980015147024   -3.15829730137430
H         0.05745213110350   -1.11579068046445   -4.24829017542421
H         1.55617988013378   -5.11642134789885    2.21300630758268
H         3.09655878717630   -4.70830072107469    2.96888666868252
H         1.38250068171929   -5.27386550517372    4.68360271668589
H         0.35020054433737   -3.96583617416603    4.09073204925890
H         1.89922101850294   -3.59256849622679    4.84310987329266
H         5.14177725480071   -1.73062084134986    2.00077082315521
H         4.70332705077521   -3.21859091589101    2.83950659865027
H         4.18113620121802   -0.39888112252758    3.90112690398252
H         3.77995660376496   -1.89788360569965    4.73464082510110
H         5.47135098874004   -1.47817357206115    4.44675445043047
H         5.26050907510531    3.58782871852167    0.20023582512996
H         5.43975946237933    1.88286645431239    0.61318486063680
H         4.22793258253616    4.03104554447266    2.42268180204990
H         5.83096614549517    3.31224087149002    2.60635837695869
H         4.38225582914617    2.32721087485247    2.84409900407763
H         2.43658483020929    4.91917410000060   -1.83069614856546
H         3.92453563344151    4.93857474880759   -0.88418852981902
H         1.14528035379143    5.59587202664821    0.20977623934432
H         2.40275335091393    6.77611104763001   -0.18163285529018
H         2.64331323184417    5.62711581746213    1.13781575672057
P        -0.69656447556920    0.83355082333367    1.90179419319563
N        -1.22636721431421    1.24005353644303   -0.98370473347004
N        -1.44011489496258   -1.39075380680136    0.03614055456646
C         0.27337943288199    3.13801558041747   -1.26815569704107
C        -1.36473709837111   -2.62704670658938    0.59339507445597
C        -2.28988123149617    0.22375109544568    2.58427481868983
C        -0.99294032707766    2.64521355553872    1.97958334949820
C         0.38345515907736    0.63455138506399    3.37501426464482
C        -0.92800499083157    2.48095353021386   -1.44804624005461
C        -2.50760563820895    0.99413474920394   -1.36004718912667
C        -2.69006331692020   -1.28748551669024   -0.48469815675699
H         0.36468448648109    4.12958478522092   -1.68299283397222
C        -2.60073847552045   -3.34876019211552    0.40055646201123
H        -2.52835100999433    0.72044794611834    3.52468256619627
H        -2.21849267877782   -0.85071291702134    2.74183301137231
H        -3.07565681837731    0.41314863836732    1.85535858097853
H        -0.06859047906423    3.16402567527765    1.73397846185636
H        -1.32893615465054    2.94051560164386    2.97373548619034
H        -1.74685166770383    2.91295046803915    1.24228025779268
H         0.52651658078590   -0.42596940047195    3.57183233475237
H         1.35253097908651    1.07980463296949    3.15821784248062
H        -0.05754016392079    1.11582604850265    4.24817699510527
C        -2.05593549055110    3.04635690000182   -2.15060468902440
C        -3.04911222713726    2.11709509974552   -2.08858389371206
C        -3.20450931611848   -0.17398298382231   -1.11960699376432
C        -3.43181194482910   -2.50872258451225   -0.27540943140062
C        -2.84905199286076   -4.75641320326567    0.83180820466769
C        -2.06541721041195    4.37409678407202   -2.83324692522230
C        -4.41596660729058    2.17578046545445   -2.68613285428625
H        -4.22606972238431   -0.22389406260355   -1.46284818121047
C        -4.81701136473613   -2.76734606172354   -0.76845375281729
C        -2.21975216452874   -5.75390666467677   -0.14386343566044
H        -2.43662793024699   -4.91902270243904    1.83090505732008
H        -3.92464087443882   -4.93839133619441    0.88449985901174
C        -1.37973665613859    4.29914942493236   -4.19963001453795
H        -1.55614448773983    5.11639831332815   -2.21326380200308
H        -3.09645182323292    4.70820380511569   -2.96924512662290
C        -4.46774361289266    1.44022752767820   -4.02742526745167
H        -5.14173726374938    1.73060781470295   -2.00103866784392
H        -4.70322063617686    3.21850064325138   -2.83987314494971
C        -4.81700746579607   -3.13193030280048   -2.25502495284762
H        -5.26061744566286   -3.58764284270629   -0.19993222238356
H        -5.43981658144176   -1.88270419999636   -0.61298963225976
H        -1.14550130113983   -5.59587467941261   -0.20963430093202
H        -2.40300108514540   -6.77603470397272    0.18192908991388
H        -2.64360630435020   -5.62709291065933   -1.13755635626625
H        -1.38225930201557    5.27366768041470   -4.68385393622737
H        -0.34999365594579    3.96569101571977   -4.09080625703728
H        -1.89894850150213    3.59235503707416   -4.84328628958064
H        -4.18096585625631    0.39870010488678   -3.90121279234423
H        -3.77972373966622    1.89763066357427   -4.73482581417118
H        -5.47113901540148    1.47795152522152   -4.44702181469646
H        -4.22817321504001   -4.03106850893319   -2.42238734620551
H        -5.83117871222862   -3.31219869001859   -2.60604297932763
H        -4.38243028108181   -2.32725762061065   -2.84392336943621

