119
CSD_code = SURMEX | q = 0 | S = 0 | Stoichiometry = C54H54FeN4O4P2 | MND = 6
Fe       -0.00012364607862    0.00019453350697    0.00009727624637
P         1.04817142848039   -1.69315482342638   -0.91788953050094
O         7.20443316124009    5.17106032427874   -1.85699831285052
O        -3.49819821053048    1.85089001008237   -8.14864604853591
N         0.56114959364347    1.13504227798768   -1.54728143062914
N         1.66875493569089    0.50890795019662    0.97752884492066
C        -0.10675422628767    1.30829960097251   -2.71999448012728
C         0.65332703676939    2.13854824452983   -3.60941831398984
C         1.78130447626234    2.48273912816061   -2.94823792931186
C         1.70634812275585    1.86142130087174   -1.65730879607840
C         2.69971587968285    1.98407414985577   -0.69159453000232
C         2.65705496599086    1.33384331226042    0.53693057854865
C         3.68416959007942    1.45739152054418    1.53086490640496
C         3.31172618768252    0.67801057606476    2.57114381309910
C         2.04600581864872    0.10126762911786    2.21962527912419
C        -1.33546261988553    0.75124000284272   -3.05765932639247
C         0.98901318354059   -3.30972193974521   -0.04794549496418
C         0.52850834536599   -2.21541624127377   -2.60059270367551
C         2.85846407380980   -1.53757111157041   -1.18752172709021
C         3.86523089692163    2.84080080663797   -0.99403554479565
C         5.14273451670893    2.29633404204994   -1.11194342189462
C         6.22689657645601    3.09557461604133   -1.40037451249143
C         6.06714058244359    4.47086379989712   -1.57604324946863
C         4.79748598062787    5.02333610684311   -1.45828948272316
C         3.71449268852732    4.20933061211597   -1.17309245768317
C         7.10479448809637    6.55909877094226   -2.05434105774319
C        -1.90574832500671    1.06735170530907   -4.38385502993728
C        -2.07003164233691    0.07136483624300   -5.34492945827242
C        -2.59793342729913    0.36484263840041   -6.58275005936299
C        -2.98411422032576    1.66854696425748   -6.89754338649384
C        -2.82453446231847    2.66836434859990   -5.94573168253929
C        -2.28783471301257    2.36236801107136   -4.70657398614787
C        -3.90636393376295    3.14247490650762   -8.52338507666327
H         1.54338027250572   -4.06983925388142   -0.59843691570538
H         1.41455922317652   -3.18867686356255    0.94652258097918
H        -0.05130885516289   -3.61264299872152    0.05558708269359
H         1.13414230930479   -3.05275294519747   -2.94786909722980
H        -0.51982278099860   -2.50657282768704   -2.57559038520733
H         0.63958361814160   -1.37366241569628   -3.28184073394728
H         3.25584330574544   -2.43445859544535   -1.66308331700171
H         3.35005662580870   -1.38187274387362   -0.22913533722432
H         3.04694432921697   -0.67165447249143   -1.81970789913539
H         8.11648725881911    6.90057880271311   -2.26825693908467
H         6.73425003511254    7.06841751809945   -1.15838961281520
H         6.45587032632477    6.80005475723175   -2.90301243204977
H        -4.27562746292254    3.05141281051236   -9.54381549137972
H        -4.71166676426825    3.51332181990588   -7.88036334754971
H        -3.07139819249866    3.85091971432998   -8.50428847285648
H         0.36275984277080    2.40104425058210   -4.60820234432661
H         2.59891111575277    3.08298481871870   -3.29769568674681
H         4.56549177203052    2.06161363331917    1.43700785866820
H         3.83661562202352    0.50315657488974    3.49013799374828
H         5.27861164612887    1.23228017158896   -0.98359708141773
H         7.21726146028214    2.67900581573700   -1.49774940910022
H         4.63641753917683    6.08271561058393   -1.58475659667530
H         2.73195392885061    4.65012180135104   -1.08144280367418
H        -1.77051069026589   -0.94068726394735   -5.11443194657229
H        -2.72348199668441   -0.40101324275929   -7.33208628005994
H        -3.11355119875504    3.68697758715834   -6.15336274314492
H        -2.17104727423622    3.14728510406041   -3.97288971861561
P        -1.04831428398126    1.69343126020239    0.91805552551390
N        -0.56104851480807   -1.13521268762950    1.54718603476914
N        -1.66869503465530   -0.50901719608546   -0.97759123822398
C         1.33549000946151   -0.75127759880175    3.05764111228850
C        -2.04595896917314   -0.10133924471504   -2.21966509667616
C        -0.98902773256428    3.30985297384794    0.04786395070830
C        -0.52847332730433    2.21543927969378    2.60075336146545
C        -2.85859313377184    1.53756109435587    1.18753456158090
C         0.10681187242410   -1.30839689479686    2.71994017307966
C        -1.70628942860807   -1.86152263200320    1.65724985559271
C        -2.65700912824512   -1.33391974806117   -0.53697312339092
C         1.90575535308876   -1.06734938578414    4.38386077970146
C        -3.31170364354204   -0.67803773704474   -2.57115900538915
H        -1.54337686835715    4.06997541826251    0.59834797688427
H        -1.41456770890939    3.18876744919914   -0.94660676221312
H         0.05131399096852    3.61271020191342   -0.05564705109870
H        -1.13409904998956    3.05276194934721    2.94804414093407
H         0.51985935365675    2.50658434446967    2.57569654268280
H        -0.63955101605166    1.37364312936923    3.28194918484146
H        -3.25599007001612    2.43443027939336    1.66309680859836
H        -3.35014923160761    1.38184446434466    0.22912881550235
H        -3.04700661581128    0.67162280029776    1.81971393742763
C        -0.65329996805354   -2.13859331862518    3.60938825235055
C        -1.78127475234457   -2.48278477338721    2.94820398224792
C        -2.69968752843619   -1.98411987159157    0.69156754121758
C        -3.68414885406598   -1.45742049496649   -1.53088230095753
C         2.07002191057886   -0.07134949003544    5.34492828538141
C         2.28784345415914   -2.36235887705461    4.70659892599677
H        -3.83661503791149   -0.50313910336542   -3.49013104770239
H        -0.36277364513567   -2.40102355403350    4.60820322815804
H        -2.59891367554638   -3.08296447869286    3.29769495917041
C        -3.86521243915814   -2.84082235743988    0.99402782231698
H        -4.56549707125684   -2.06160267749775   -1.43700191167267
C         2.59791344703727   -0.36481261085940    6.58275555427366
H         1.77050620790381    0.94070027270566    5.11441638260922
C         2.82452510645356   -2.66833978460035    5.94576324300584
H         2.17106412480521   -3.14728360487841    3.97292268687059
C        -5.14271643117285   -2.29635601589870    1.11193727708248
C        -3.71447578536771   -4.20935112844994    1.17307984503953
C         2.98409506451015   -1.66851248080852    6.89756390869408
H         2.72345192787649    0.40105040563139    7.33208508854443
H         3.11353890825888   -3.68694992614898    6.15340605274681
C        -6.22688157337714   -3.09560132147680    1.40035992124791
H        -5.27859680728022   -1.23230347309236    0.98358579019142
C        -4.79746927084514   -5.02336092330867    1.45826974321907
H        -2.73193534489934   -4.65013982424060    1.08143010005764
O         3.49816525206678   -1.85084912570368    8.14867000147077
C        -6.06712509825396   -4.47089195425273    1.57602377196448
H        -7.21725053085791   -2.67903683597854    1.49772579048842
H        -4.63639907684213   -6.08274089246774    1.58473135081551
C         3.90632707699745   -3.14243467057060    8.52340901521682
O        -7.20441445157570   -5.17109698713384    1.85697653295974
H         4.27558346739047   -3.05137499489504    9.54384121843301
H         4.71163408737881   -3.51328048783385    7.88039299874534
H         3.07136138162215   -3.85087922488542    8.50430421392417
C        -7.10476458571363   -6.55913614115147    2.05430969552414
H        -8.11645254825274   -6.90062874428605    2.26822745383628
H        -6.73421790349069   -7.06844565966646    1.15835365552939
H        -6.45583397735524   -6.80009216653321    2.90297589387514

