50
CSD_code = SURMUO | q = 1 | S = 0 | Stoichiometry = C18H22N6O3Re(1+) | MND = 6
Re        7.24153334052312   -0.70909163954393    4.02642685600173
N         8.54377013603300   -1.24349203806617    2.34080894428759
N         9.48580445643105   -0.39485662308194    1.87100808716964
H         9.53478716080508    0.55959234453368    2.19946449855032
N         7.65924063331850    1.38100235464486    3.44275416490593
N         8.13975065887820    2.26086591695218    4.34921497792033
H         8.41185515854255    1.96023858705600    5.30243147060265
N         9.33059741214639   -0.56700805051643    5.22806074519054
H         9.78731621553125   -1.47885224609397    5.19500871925251
H         9.92764963138130    0.12350992059207    4.77145334008810
N         8.92168863578048    1.13018699108858    6.76379904159824
C         5.57214608805438   -0.84359956525012    3.02799583510187
O         4.59290401625061   -0.92889344250257    2.44768811295163
C         6.27149617287652   -0.06918379423861    5.59330026667091
O         5.75720473172033    0.32219328800968    6.53347325708821
C         7.07584475601492   -2.53538153628936    4.68706052098955
O         7.01841882959915   -3.57800800674107    5.14850532656132
C         8.61675064471999   -2.33651078805265    1.58157402383344
C         9.61810155327812   -2.16917746822623    0.61507331761724
H         9.90426239031407   -2.87717372079078   -0.13357906878258
C        10.14443872423781   -0.91036792653031    0.81307334924844
C         7.74398597047688   -3.52301857831032    1.75715278392437
H         8.18604226082678   -4.22320859930133    2.46566808339019
H         7.63173063312200   -4.03641902650944    0.80595940935032
H         6.76179402431762   -3.23087154102667    2.12712976687484
C        11.21801334487522   -0.17538935040973    0.10656157913710
H        11.15331446674416   -0.36042080100858   -0.96264743608778
H        12.19789984433928   -0.51655455883782    0.44118508743336
H        11.14426493317165    0.89506091921754    0.28635616843649
C         7.37103586606478    2.08625674535271    2.34432613861639
C         7.68689462430643    3.43182213580314    2.56071002527256
H         7.56477953266090    4.23461646745923    1.86462850058408
C         8.16414482300179    3.51055189056460    3.85568768261701
C         6.80047663618674    1.49724406184264    1.10514664108912
H         6.81252474137988    0.40934732829544    1.13306775903615
H         7.35172080171360    1.84369677134798    0.23245218905995
H         5.76679264083720    1.82101445845392    0.99212308476397
C         8.66269218812436    4.66291139764810    4.64045779182899
H         8.55648575855894    4.47582355512733    5.70614626438114
H         8.10885247587175    5.56004640234867    4.37752887926085
H         9.71590304669589    4.84599680757053    4.42550277361059
C         9.08801660287699   -0.17448556989773    6.57776308998594
C         8.98734220242373   -1.10410421754246    7.60462646367783
H         9.11951036716747   -2.15728964701231    7.41188286211462
C         8.69324452154917   -0.63620308143517    8.87407481314337
H         8.60117060151072   -1.32702271638737    9.69713491329539
C         8.52133084995453    0.72710160517514    9.07289062106300
H         8.29375034263427    1.12377106544727   10.04770251643441
C         8.64183316949038    1.56971378874433    7.98404655727379
H         8.51339138267942    2.63891973032814    8.07513920358634

