50
CSD_code = SURNAV | q = 1 | S = 0 | Stoichiometry = C18H22N6O3Re(1+) | MND = 6
Re        5.57853867862352    3.55841383562964   10.35068559402202
C         5.39536313028945    2.13362542168461    9.03062836312543
N         3.54820194850734    4.35595916209753   10.02742048989146
N         5.66508152152535    5.06372142752674   12.01152469787639
N         4.63327875268688    2.11655786222083   11.84681146517541
O         6.89164226085965    5.47998954471595    8.31070167487361
O         8.43469164686722    2.60799965533617   11.05440376336159
N         2.81764357362952    4.87581900230569   11.03585298972742
O         5.28078055817688    1.25972989659576    8.30719433121059
N         6.07291626694170    4.70106067740870   13.24627892016382
H         6.28353099830879    3.73822188492507   13.46515335005882
C         5.38958887079401    1.48420333166400   12.74465552090473
H         6.45048018128657    1.70405207355634   12.74823607019409
C         3.34005348088998    1.79612381892161   11.78949249916820
H         2.73838571154973    2.27318637463633   11.03034374974988
C         7.37393482284632    2.94379785868559   10.78478286066241
C         4.90456531546618    0.52150697227378   13.63897885059852
C         6.19631410535937    5.76105253537624   14.06955825456859
C         2.81141071752443    4.49337093751920    8.92560710077148
C         2.76159247934338    0.86384345463742   12.63892009810501
H         1.71052480732033    0.64303046120594   12.54740386997090
C         5.83663590516102    6.86385179977536   13.32495777393874
H         5.81284982437727    7.88324566397441   13.64756304780440
C         1.63150063630211    5.34992760288503   10.60828224203016
C         6.38801180177351    4.78803419108140    9.06637559209373
C         1.59631364125591    5.11212185762937    9.24998299621739
H         0.80448842051698    5.35429679445370    8.57311326988123
C         5.52214005104206    6.38910806305044   12.04330520226663
C         3.53578509069065    0.22226987238054   13.57907770814257
H         3.11252903603073   -0.51146741048822   14.24708885340391
N         5.72152164670055   -0.04322848311151   14.56371229878775
H         5.38590345184101   -0.84572587667712   15.06923567989877
H         6.71797661934881    0.01471882337357   14.43838455639453
C         3.24487737955710    4.03856819130597    7.58145094204274
H         4.32588980453699    4.11479182773781    7.47220991616758
H         2.76197272821538    4.64085599839254    6.81678664030581
H         2.95814206638258    2.99913593477293    7.42268564659275
C         5.09801416047791    7.21734155790846   10.88593163811136
H         4.88685780996566    6.60797028964551   10.01057362563272
H         5.89264744876867    7.91714933737307   10.63244072014431
H         4.21435119901285    7.80109465569237   11.14102860310768
C         0.64372503571690    5.97398544906466   11.51823209421320
H         1.06351534004532    6.11848479629046   12.51122377177331
H        -0.24362145870578    5.34756289088955   11.60169702314736
H         0.32751471957396    6.93767550813732   11.12424129316789
C         6.65458617098566    5.62994980415487   15.47093505536041
H         6.24427711159194    4.73491200334464   15.93532875338632
H         6.35286063145415    6.50048810576679   16.04590062256662
H         7.74225185048057    5.56283186558837   15.50465758461831
H         3.18106204809469    4.91728269668543   11.97686233462003

