71
CSD_code = SURZIP | q = 0 | S = 0 | Stoichiometry = C24H44NiP2 | MND = 4
Ni       -0.00015190497074    0.00001314305497    9.56683634491149
P         0.15623785287732    2.11725024799698    9.35354141137447
C        -0.00002217009045   -0.00001820934250    7.59820449160898
C         0.31632762906146    1.15074642710941    6.85924053298967
C         0.31327610771515    1.15057887193958    5.47162844408393
H         0.56158406806971    2.05825046284919    4.93573262225876
C         0.00014249115797   -0.00006260075769    4.77286234760931
H         0.00021565267783   -0.00008608358092    3.69200701061583
C         0.69931733053753    2.39458825698575    7.61222446616496
H         0.27274983826350    3.30117992181882    7.17368868890485
H         1.78914088665381    2.49696437862890    7.59702922479396
C         1.48186579608220    3.02300575457997   10.34744961104635
C         2.66946663671866    2.05480902752394   10.30030940959196
H         3.45860114830807    2.37742625370326   10.97777075933822
H         3.09170458533086    1.98656093464030    9.29901469058599
H         2.33786865420547    1.05675909075536   10.60211309763965
C         1.89797417060003    4.38075419806893    9.78590972864428
H         2.73587301035924    4.76287945316224   10.36926249364806
H         1.09196063189313    5.10570003080222    9.84715646199849
H         2.22074646093434    4.31194255824865    8.75016325574598
C         1.03756309160812    3.17514582722153   11.80011229524639
H         0.61719712205398    2.23773547290589   12.16107908040233
H         0.29604671991878    3.96342698788521   11.90520096020803
H         1.89076891222679    3.43362046387680   12.42642606784535
C        -1.53069577079711    2.95501083180543    9.44272478334383
C        -1.51541029642931    4.46478934869333    9.23099713863901
H        -0.96672036717287    4.74132396969073    8.33290029865001
H        -1.07500481298562    4.97700151003321   10.08315839490184
H        -2.53869937293552    4.82397104834322    9.12094956850455
C        -2.17142082736873    2.61319276028627   10.78855775807343
H        -1.71759642165827    3.16566265359879   11.60566149785149
H        -2.05510822788781    1.54650975618366   10.98740364374608
H        -3.23476377191421    2.84957355742589   10.76854887437750
C        -2.35659982642611    2.27591164168365    8.34601999906867
H        -3.40039274871056    2.58095069711426    8.41623208080348
H        -2.30737016000603    1.19111547315319    8.46793564892680
H        -1.99568163418074    2.52455955370655    7.35049893967208
H         0.00000116963266    0.00016828595325   11.06340250606698
P        -0.15636966811322   -2.11723022143583    9.35352554887604
C        -0.31634207849317   -1.15078879062169    6.85923627736969
C        -0.31311452793881   -1.15067037485854    5.47162548723667
H        -0.56132715736307   -2.05836906091836    4.93573101392653
C        -0.69941698431727   -2.39460629475146    7.61221271367484
H        -0.27291014164037   -3.30123465810897    7.17369165723224
H        -1.78924631332852   -2.49689547318114    7.59704075419351
C        -1.48187446139036   -3.02309043614644   10.34750046275282
C        -2.66953816632240   -2.05497157445570   10.30035873402503
H        -3.45859629352040   -2.37761913410416   10.97789208884247
H        -3.09185263757092   -1.98680362737585    9.29909028827493
H        -2.33799381506580   -1.05688412415372   10.60209496253243
C        -1.89789048781844   -4.38086121825868    9.78594582131558
H        -2.73583955981308   -4.76298691357031   10.36922410860022
H        -1.09186880164490   -5.10579079268658    9.84729498894684
H        -2.22056039331107   -4.31208404994488    8.75016442639645
C        -1.03752271075750   -3.17521191734024   11.80015372333844
H        -0.61719971828254   -2.23777994358030   12.16111200990266
H        -0.29596279667463   -3.96345493032921   11.90523380225487
H        -1.89070082651008   -3.43372504021298   12.42648726572332
C         1.53061750063446   -2.95490079471344    9.44269207116711
C         1.51545819180891   -4.46467502597308    9.23091749360437
H         0.96673406893757   -4.74121222262955    8.33284369721489
H         1.07511942400954   -4.97693080171640   10.08308505662865
H         2.53876227404739   -4.82380343286273    9.12080865737220
C         2.17138709277833   -2.61308782245445   10.78850679612521
H         1.71763468471156   -3.16563868738161   11.60559322799121
H         2.05498618151976   -1.54642665433005   10.98741698914174
H         3.23475343701819   -2.84937283790517   10.76846634601256
C         2.35651765242108   -2.27574260816228    8.34602279059975
H         3.40032666875565   -2.58074587894418    8.41620021782436
H         2.30725069714201   -1.19095311838020    8.46797457325197
H         1.99558801274286   -2.52436349623605    7.35050131773923

