85
CSD_code = SUSGES | q = 0 | S = 0 | Stoichiometry = C40H37NO3P2RuS | MND = 8
Ru        1.20589737793622    3.18873620491028    2.45844337481236
P         2.80102760036425    2.94263707369678    4.07626354060269
P        -0.41062057086527    3.50101887986893    4.05151763597862
O         3.18754692492142    4.43453466745785    4.57933339051928
O         4.22581192721658    2.60120128203425    3.31697293420074
O         2.64272593655160    2.01001327860175    5.22166552414597
N         2.03870913586550   -0.73879744826233    3.92913436590070
C         0.78750433209326    1.38491235175890    2.54342847080578
C         0.33005854616860    0.15154538143119    2.53844998305334
C        -1.03171916762558   -0.04925808230360    1.98556346717973
C        -1.41485201779496    0.60662743547429    0.82022558768182
C        -2.69922403992330    0.46385545941074    0.32724677429955
C        -3.61266228151009   -0.33517326645961    0.99338550502333
C        -3.23265915474819   -0.99420069759336    2.15044291231646
C        -1.95137706133309   -0.85249999030807    2.64916316471457
C         1.07925734821172   -1.01734746668190    3.02684991335780
C         2.97046769054317   -1.56093610521617    4.56462392936479
C         3.60120807352427   -1.02567231336970    5.69183537998696
C         4.55149850658400   -1.75615258121750    6.37521492610798
C         4.89335187877504   -3.03045511075674    5.94972805446204
C         4.27967996186438   -3.55856833130201    4.82792610762007
C         3.32594694837933   -2.83617035995395    4.13314843213531
C         3.93909136204974    4.55941487552966    5.77411430271782
C         4.40191562552105    1.32096646156234    2.75878090981535
C         0.07833191648125    4.53647637982463    5.46456636592221
C         0.66223814830291    5.76859047475214    5.17448512963402
C         1.06765511754724    6.60799522963605    6.19322559060362
C         0.90831808205615    6.21800216452045    7.51431982936535
C         0.33682824411146    4.99211031323450    7.80777836386136
C        -0.08289381714001    4.15213821485281    6.79008589019681
C        -1.81958268397449    4.39532833129788    3.32205169390596
C        -2.30249090248681    5.61466260731793    3.77860567266005
C        -3.36276256812706    6.22245051767766    3.12530544921588
C        -3.94968496765969    5.61642356562527    2.02771227168102
C        -3.48033772597788    4.39033335138202    1.57918613518843
C        -2.41721260443842    3.78479971211067    2.21966778182952
C        -1.21740132196953    2.06619589361750    4.82973793012258
C        -2.58644427898114    1.82921170355380    4.78580825599080
C        -3.10912854990903    0.70118252376228    5.39542611669575
C        -2.27731374128943   -0.19469812243765    6.04486407352307
C        -0.91171721501618    0.04106214014719    6.09633302587221
C        -0.38332095191637    1.16671817669621    5.49413483561145
C         0.85962125700410    5.18121688270037    1.43500263943974
C         0.45911776066375    4.12731159601536    0.56063818578680
C         1.61234367427818    3.36163266504251    0.25069622251564
C         2.70144033486777    3.90648219266793    0.97308551925078
C         2.23188952508943    5.04556791155901    1.69120167198726
S         0.70071341428949   -2.51471377893617    2.44609879668235
H         2.07972382681602    0.22915484001664    4.25122831643800
H        -0.69017309279818    1.21508849279527    0.29567123363254
H        -2.98558627010361    0.97228997785184   -0.58271712386896
H        -4.61524892626931   -0.44932051427175    0.60787819950653
H        -3.93932288964644   -1.62371394441304    2.67086889933390
H        -1.66376904830229   -1.36444735669594    3.55392899373804
H         3.34383486378899   -0.02833948283554    6.01499320156316
H         5.02923246759135   -1.32854944212952    7.24459886749002
H         5.63525315129247   -3.60298859728697    6.48623892028532
H         4.54507090712080   -4.54649628608665    4.48149207210986
H         2.86554246509305   -3.26376480450485    3.25974477406805
H         3.63976571693162    5.49266722487649    6.25293071267735
H         3.72883868206163    3.71921878281489    6.43912013204407
H         5.00631337468884    4.57983849316497    5.54672684802599
H         5.29845243963669    1.36054425242499    2.13814367990169
H         4.53555282195992    0.56972181838763    3.54100923219468
H         3.53752826298126    1.04182777701026    2.13976512683824
H         0.79977568540106    6.06242328901390    4.14241705493671
H         1.51396081267284    7.56429379307380    5.96028936786768
H         1.23412802635014    6.86880954315032    8.31246005633683
H         0.21599705561191    4.68553576389414    8.83629394623395
H        -0.53224567267113    3.19942231809684    7.02690641792874
H        -1.85436228608612    6.08825730226913    4.64063043863337
H        -3.73246778258160    7.17400614434063    3.47860266204871
H        -4.77467023898583    6.09673537123191    1.52287819834019
H        -3.94372786265434    3.90882496085144    0.73048163984793
H        -2.03867357707715    2.82469593446490    1.88591605037465
H        -3.24737659169363    2.51903545078317    4.28211068531762
H        -4.17345255017718    0.52165838819330    5.35785932046603
H        -2.69206920164098   -1.07650096044469    6.51064666167277
H        -0.25868613007496   -0.65443454586129    6.60289148461943
H         0.67549636067328    1.37925767362455    5.54096216329580
H         0.22800268650107    6.01303446367237    1.72348457971526
H        -0.49815252514439    4.06642829950990    0.05938487321434
H         1.67303471904742    2.57213600026879   -0.48806882723275
H         3.74084494291823    3.62995074507770    0.85726960831288
H         2.85874434822378    5.74598658990643    2.22468549748212

