88
CSD_code = SUSGAO | q = 0 | S = 0 | Stoichiometry = C41H39NO3P2RuS | MND = 8
Ru        3.06570031995820    3.26082374366203    2.24210796055646
S         4.68500100422248    6.26961695990968    2.59972253792758
P         1.82531752867712    4.80758538624857    3.37911149026688
P         3.89852801914253    2.28150952870241    4.12707827035140
O         1.87039311240046    5.25263497983079    4.92235327426182
O         1.52956629220376    6.28160672855324    2.76514988457483
O         0.36924760446191    4.11899608071197    3.40468997077433
N         7.54376158821514    6.19163430958424    2.79421607523684
C         4.67914004417652    4.48234638479726    2.19749658550434
C         6.04609881563482    4.35679625890576    2.09822214811371
C         6.93216137819430    3.24380828500079    1.79787162536762
C         6.69674606289430    2.40346148617047    0.71105615457346
C         7.54038600324856    1.33997191941584    0.44698136434104
C         8.63759424340583    1.10429791373446    1.25836333117451
C         8.90052429125955    1.95681408221957    2.31945870510717
C         8.06336716402024    3.02241138684710    2.58434382480422
C         6.45129020015748    5.66578096765316    2.51472692895434
C         7.79064116874478    7.43837434515408    3.32079724282589
C         8.99634611511686    8.05280041118025    2.97556509380791
C         9.32633564515420    9.28193064361882    3.50847764274658
C         8.47338775732272    9.90787919848056    4.40468062449762
C         7.28293464314240    9.29632746060192    4.76178940320643
C         6.93714407191030    8.07060104634055    4.22750845557721
C         2.66098052819572    6.29994323102746    5.46582608582429
C         1.73486734245202    6.62807913811583    1.41055996635431
C        -0.73373757047718    4.75991660112449    4.03157087383344
C         2.71140353880088    2.34008695280296    5.51379805038244
C         3.02921673306751    2.75820102753942    6.79990218369484
C         2.04111861004663    2.83057467018329    7.76733171822490
C         0.73748099243468    2.47837528735248    7.46496675640942
C         0.41721542807026    2.04621197185654    6.18711551352348
C         1.39711015370935    1.98490231728556    5.21632616588210
C         4.18437665469559    0.49129503092234    3.92485978363271
C         3.45240132420046   -0.50116442142793    4.56398788898470
C         3.72438866240019   -1.83432514498753    4.30237993107762
C         4.72493279272876   -2.18446046470330    3.41186684987924
C         5.46527364212647   -1.19632737228451    2.78011593481421
C         5.19409984770863    0.13389110438652    3.03258069535408
C         5.44278677726022    2.79515619329208    4.95394606580015
C         6.43727437992293    1.92220283316946    5.37832163642350
C         7.56265383629855    2.41733594529626    6.01519654987264
C         7.70426000095957    3.77676025039762    6.23536121836928
C         6.70996910474654    4.65163037845378    5.82548629358105
C         5.58726843164441    4.16072803029157    5.18799712516488
C         3.05638230404497    2.86962208497740    0.01931623430807
C         3.35993093399751    1.66323955527542    0.70098618542965
C         2.20041337518068    1.28899678686248    1.45022918686217
C         1.22585157997247    2.27432184446723    1.27697752206296
C         1.75964713961825    3.27805025109304    0.40954517205567
H         5.86074535294695    2.60940888982862    0.06101729260846
H         7.34546453088349    0.69592430550448   -0.39986542868389
H         9.29412432591092    0.27046775451465    1.05489533647995
H         9.76690820911346    1.78827954038245    2.94318008918381
H         8.27108236764191    3.69306280181593    3.40351214830282
H         9.64956943073803    7.55405853135544    2.27583299989667
H        10.25677812877664    9.75519751377721    3.22942845129949
H         8.73797208120678   10.86666563252045    4.82583815198613
H         6.61682156607368    9.77887363270084    5.46315466268435
H         6.00951248868486    7.59392719680956    4.50716479210979
H         3.27362620658286    5.88572786598161    6.26866534750532
H         3.29139757140511    6.76116710823230    4.70449511302681
H         1.98805016835907    7.05484765456957    5.87599245436447
H         2.14920825179972    7.63644153877619    1.38919354922622
H         2.44260085859583    5.94087987006148    0.93584679063141
H         0.78392488198984    6.60665142907797    0.87256879118230
H        -1.63666494405699    4.34701002721348    3.58099741745651
H        -0.72493864785703    4.55335861532858    5.10252855779560
H        -0.70007482043746    5.83861128868654    3.87107912185704
H         4.04600214164319    3.02940797641372    7.04584893386456
H         2.29226697379186    3.16507849273596    8.76367122292005
H        -0.02972488504213    2.54024771027245    8.22311872259971
H        -0.59843316619118    1.76349732434546    5.94917516145690
H         1.15297841485002    1.66138791574837    4.21242583201083
H         2.67332424211988   -0.23719935549918    5.26505504653447
H         3.15032295267584   -2.60328144205310    4.79928468681429
H         4.92940741645559   -3.22599334145517    3.21163076584140
H         6.25314749564596   -1.46232394768885    2.09048294417061
H         5.76385958331530    0.91656698562946    2.54920738382379
H         6.33903120310486    0.85929191918722    5.21439189390857
H         8.33480680295247    1.73442414269647    6.33839877074002
H         8.58872926477097    4.15747072702400    6.72450831530045
H         6.81966513063979    5.71251300510326    5.99592529796954
H         4.79888950458525    4.82233798036809    4.85451801149102
H         3.66107745884413    3.34425836996673   -0.74419068255247
H         4.18934443111988    1.00325595354867    0.49027636743318
H         2.07293601564367    0.34144439677540    1.95859384470420
H         0.20334648329849    2.23183580698160    1.62271608570945
H         1.17913490973111    4.06536459276633   -0.05428442591428

