67
CSD_code = SUSKAU | q = -1 | S = 0 | Stoichiometry = C20H32LaN4O10(1-) | MND = 10
C         3.91352463708545   11.89475074140791    3.49869988892564
H         4.29186318883657   12.13208503416584    4.49310778490714
H         3.25786115936227   12.72801536161758    3.18758398150976
C         5.08635051864032   11.79631069214882    2.52696464032452
H         4.70736412347936   11.59424172044600    1.52033623522875
H         5.60615197793015   12.77246334486376    2.49935473762511
C         6.85627448850801   10.39751448918850    1.73283208988343
H         7.84671084480954   10.10709396700437    2.08647246072474
H         6.98942584226753   11.26299489556966    1.06261823224804
C         6.25914074533437    9.23683217485109    0.93291094946340
H         5.21950085952005    9.45937050228607    0.67959322694260
H         6.84039888909285    9.09497917270131    0.00605618569509
C         7.46982241881138    7.39694681464403    1.84185182958975
H         8.02999870067846    7.87750935499893    2.64689176895710
H         8.05241131011594    7.45687769786196    0.90883473716747
C         7.21110615072267    5.93203457332374    2.18180996534108
H         6.68155220571811    5.48800138132952    1.33389476805128
H         8.17986113655613    5.41510027373553    2.28882387941924
C         5.64238132018084    4.52535973146120    3.32322710389957
H         5.34640577452356    4.25912936108598    4.33803105557578
H         6.26957776088765    3.70221882233694    2.93583393595361
C         4.39413126827344    4.65001355171945    2.45385388733851
H         4.68979519162437    4.88068443779409    1.42567964707191
H         3.87248943234649    3.67453338005133    2.44143812292643
C         2.56701625789467    6.06881967050097    1.84680342735358
H         1.60907991587470    6.34783249831688    2.28825143369858
H         2.37865798787317    5.22248604888601    1.16548011425129
C         3.09803018740741    7.25241915234886    1.03393989284503
H         4.11324378122602    7.03840609239601    0.69030142415567
H         2.44310550015926    7.41973847269335    0.16209059884955
C         1.96772703736541    9.06449864479243    2.09027452025701
H         1.47437024523581    8.56062294174080    2.92426534573403
H         1.31097340710547    9.03048705982866    1.20650018394460
C         2.25508740899287   10.51945214740497    2.44949749925036
H         2.71425720271305   10.98800301764010    1.57418446630783
H         1.29891852658017   11.03205536917785    2.64980067894870
C         2.44551141643615   10.60900636306079    4.85766426749181
H         1.85084613944863    9.69748412680726    4.92816867946668
H         1.79045873729533   11.48901440302738    4.97322650638282
C         3.48823561297924   10.57870069930521    6.02747940064367
C         6.83975949681925   11.07652590395869    4.03533337751107
H         6.21060982934640   11.26689135110587    4.90541584534294
H         7.47831997406019   11.95254948432600    3.83170331517353
C         7.71644392783184    9.83166414076220    4.35910730153653
C         7.21736277176510    5.77419252354011    4.59410584910916
H         7.81598994104444    6.68458061180841    4.64209776629173
H         7.87933501333388    4.89254426854835    4.63069913572793
C         6.27284372457378    5.76867999839175    5.84489279487607
C         2.77119531315047    5.32574588091865    4.12042104753159
H         3.46929614280399    5.11197025058356    4.93039240679399
H         2.11702878347276    4.45503664712546    3.94557003029416
C         1.92559837401275    6.56030180811040    4.54913559318045
La        4.81243653013098    8.19846379495484    4.24423628716342
N         3.16735614779052   10.63937315699771    3.58277292647826
N         6.01000573006057   10.72654511748282    2.87982372666443
N         6.39413259903603    5.77885667463624    3.38181827097604
N         3.50390695373192    5.70858328948892    2.91098197478957
O         6.20149905662706    8.02172762724188    1.65058259057363
O         3.21546541555083    8.44681261178935    1.77860145003476
O         3.30472026380577   11.32624697689616    6.97821292180287
O         4.47518564495168    9.80885996805621    5.84418316490162
O         8.93727300493706    9.95249666414579    4.36809158075722
O         7.06764160855154    8.75709605311106    4.49662481260698
O         6.53032620188475    4.99192646207701    6.75417494522584
O         5.27688191974919    6.54460086522088    5.76603727865871
O         2.58505367528373    7.63098023600844    4.66398946925645
O         0.70941264580334    6.43845944819244    4.65356458239037

