64
CSD_code = SUSKOH | q = 0 | S = 0 | Stoichiometry = C21H24LaN9O9 | MND = 11
La        3.05702217437155    6.40085741242144    2.55531414941216
O         0.99455648175534    6.11441078298595    2.45434250312365
N         1.25928266251810    4.86749765378433    2.25206069830559
C         0.27848535995434    4.01018524279892    2.08844929916729
O         4.38614934961243    7.34853183717172    1.25083266956966
N         0.88629184922774    1.55462217058944    1.71700640840836
C         0.61344693360296    2.65739080293022    1.88508389830270
O         4.22344437304838    7.38283224269991    3.96445502887149
N        -2.19936559196259    4.66243586213578    2.14103992140503
C        -1.09737827527953    4.34394330874812    2.11095414853784
O         3.66597651813562    4.47807818191336    0.52249919606445
N         5.26400446464680    6.41030075053534    1.42009044166321
C         6.24947425000044    6.29359094564838    0.56280381152218
O         3.67968168207685    3.75371060122852    3.13368623506203
N         7.92844896893815    4.38339807304902    0.82423787510622
C         7.17931881782441    5.24773628989042    0.72909511759862
O         2.62428869112220    5.24506137484093    5.15406867925640
N         6.41331646411470    7.76419581266942   -1.52845026741618
C         6.39181918700892    7.10560064186765   -0.58824430135887
O         1.60655810241370    7.76684757091961    4.55079659245951
N         4.94511216400567    6.31932954963993    4.13486705690593
C         5.77297330037678    6.27611948288422    5.15163579677992
O         1.87497367001674    8.73241964524581    1.93136317667939
N         5.87656209152831    8.15369565317229    6.89202543209294
C         5.88012882722462    7.30615510379107    6.11791337160788
O         2.09654247190800    6.68999207146243   -0.09770388020405
N         7.18281964773723    4.18212515740243    5.55615590771523
C         6.55717637928226    5.12326060235560    5.35355168546800
C         4.04309776423438    3.15325342274467    0.86318272095226
H         4.78421020465935    2.77409036094662    0.14491326736911
H         3.15932067328396    2.50073424124304    0.85074534789420
C         4.64157959141694    3.16490034320047    2.26718906804838
H         4.84976781277455    2.13144407730632    2.56683654976356
H         5.57497568573256    3.74250669472324    2.28909175783846
C         3.72256725949120    3.24415141088543    4.45434056983965
H         4.66883881709745    3.51516237610283    4.94018354349412
H         3.62647851075642    2.14917106205671    4.44290270380281
C         2.54787243070397    3.83422680435764    5.22893134101707
H         1.60000100142901    3.48173220157818    4.79679393772980
H         2.60153048647325    3.50521473801108    6.27667071576300
C         1.68448868326486    5.89381446691886    5.99240817261302
H         1.82225907425178    5.57130675543802    7.03437210606780
H         0.66120418237030    5.65220638482144    5.67149338981982
C         1.90333042350760    7.39795701532003    5.88181159426812
H         1.23277116914812    7.91951011695742    6.58117817411958
H         2.94355524913902    7.64609917872844    6.13270261514666
C         1.77562010292945    9.14937239290845    4.29247987288666
H         2.84255752937213    9.40945051856195    4.27552046095108
H         1.26124856910243    9.74471445908769    5.06078796731842
C         1.14263911442832    9.41608215456077    2.93428291466073
H         0.10906844552654    9.04129416639967    2.95519711374933
H         1.13687914194897   10.49592629841349    2.72289518913186
C         1.16645175554536    8.74342471542547    0.70300591212974
H         0.95602840900537    9.78134268263033    0.40477748673929
H         0.21859549064450    8.19717176492719    0.81674750567481
C         2.00102951503055    8.07733087721377   -0.37989977164978
H         1.51453659805794    8.22334387906947   -1.35573894675329
H         3.00321374775569    8.52600912576476   -0.40000254939746
C         2.81563131263461    6.00439567550155   -1.10615560082166
H         3.80811405108162    6.45730059886591   -1.23697367842393
H         2.27520768736402    6.06683363784609   -2.06277187685650
C         2.96527985884599    4.54129804149766   -0.70557493733550
H         1.97429557574356    4.07650322842858   -0.59980731528200
H         3.52324306002984    4.01089930677718   -1.49024797437607

