95
CSD_code = SUSLID | q = 0 | S = 0 | Stoichiometry = C30H52N10Si2Zn | MND = 4
Zn        2.99696906993421    2.17598422353881    4.03425476550162
N         2.53785408042866    4.59134654590089    5.81597543409991
Si        1.22356639005983   -0.60500955778357    4.35842978486212
N         2.74069398250436    3.56611017554734    7.83020349136296
N         3.51621340425373    2.47407412049267    5.89703024603139
N         4.72272203154513    2.24211463471294    3.07743818813261
C         4.60347549083479    1.82253871106478    6.44373286304542
C         2.99536930576321   -0.04346912274666    2.45645002411257
N         2.36385237516620   -0.92995269003227    1.58796954454549
N         4.27731137332343    0.11083454476882    2.25730211198879
C         5.53498352449471    3.35036246960756    2.88848786784357
Si        0.75793560169247    3.89621199144374    2.45745394877685
N         2.30197795778152    0.43844090112972    3.48132482160034
C         6.32814136181425    5.50967241037411    3.61333321770505
H         6.35999319581353    6.28568489595845    4.36624222397037
N         6.42387527446181    0.64759281799755    2.76696570280595
C         7.05216029388278    5.65800565772898    2.44107297898419
H         7.64018735922210    6.54773734303269    2.27074184057828
C        -0.40759369617467   -1.22838474935539    3.56999664209707
H        -1.01894113824621   -0.44142513956185    3.14209866292836
H        -1.00009235626084   -1.71207894067286    4.34098778585509
H        -0.22079374736593   -1.96617129687103    2.79835187668866
C         2.17995153439019   -2.19697914865219    4.83091832632245
H         2.63241186754580   -2.64141717179436    3.94963942998987
H         1.51861010054440   -2.93581935555013    5.27266781338077
H         2.97465158660297   -2.00069879633576    5.54445465044256
C         2.78438152376809    2.39296058086632    8.66496686047504
H         2.84428223731672    1.49507306761234    8.05565302024287
H         1.87400093349401    2.34595607114169    9.26878569714982
H         3.65069066465697    2.41637045136012    9.33464254408371
C         2.17285913282130    4.73478817032646    8.45229949173728
H         2.37563684446955    5.59649561918010    7.82325644950329
H         2.63326856885529    4.87537036452974    9.43210123958889
H         1.08952583677542    4.63707763321038    8.58023293178700
C         4.86971105976547    0.50622812563661    6.05187268980478
H         4.17637084097212    0.02168885971986    5.37998444739112
C         5.11311460986889    1.01877224891612    2.74267177723126
C         6.64702528668108    1.79442110946245    7.73100327027042
H         7.34707238616952    2.30630710287181    8.37673493536255
C         5.99440866904835   -0.15094118624597    6.50467155148185
H         6.17733055366601   -1.17066266300117    6.19419731994776
C         5.57414681823803    4.37468241964819    3.83645405186197
H         5.01569365445888    4.26149731069360    4.75220341548102
C         7.01136412751766    4.65282469168588    1.48903037839841
H         7.56567469213730    4.76058572440385    0.56710149783677
C         7.40434967114206    1.31358955289019    3.58926204483764
H         8.08862569989999    1.91656003531863    2.98325253451006
H         7.98042352638538    0.56257000670404    4.13375300480581
H         6.91995699783797    1.95937703198829    4.31796913996409
C         3.21547835167842   -1.69880939412180    0.70773179799173
H         3.67778799622074   -1.08628647286290   -0.07583159754792
H         2.60836482965794   -2.47398675712831    0.23882860728053
H         4.00149081925413   -2.16460075081628    1.29664072859574
C         6.26620325518032    3.51113741338063    1.70630005221685
H         6.22686591121660    2.73307266153761    0.95693889858200
C         1.19658689354167   -0.41029317921179    0.90458892323728
H         0.68292397072728    0.29718985246225    1.54581193248679
H         0.52408612090768   -1.23110616321585    0.65215125359857
H         1.48460952846209    0.10091315160970   -0.02385847726917
C         5.52237919355631    2.46087292614489    7.28654972586213
H         5.35786655172664    3.49217418930174    7.56547524190495
C         0.74905015444978    0.38743726274701    5.91770562407291
H         1.42920694603945    0.17298383660747    6.73503265238818
H        -0.25181274263096    0.13923087101564    6.25464470279396
H         0.78429723057506    1.45639315411499    5.72888006999174
C         2.91702510289525    3.51879637697923    6.47840477542462
N         1.96004256458180    3.79401866943160    3.69643201088948
N         2.46803731165005    6.05275991852735    4.08599759643952
C         2.35834996877229    4.75456171458694    4.51518283637790
C        -0.62312805717136    2.66545556727637    2.94167348925232
H        -0.19272071925818    1.73598514452844    3.29633164938575
H        -1.27178769064134    2.44293431426774    2.09949581601849
H        -1.24528000074652    3.06099138414630    3.73928578674404
C        -0.10539164024450    5.59216381536218    2.27429049854812
H        -0.05517625234652    6.16123632945124    3.19568982856838
H        -1.15315002890786    5.44863117681104    2.03172943664563
H         0.32920418163869    6.19417377444387    1.48449022110310
C         2.98814286038156    6.34276539949690    2.77109409295256
H         2.99204662874020    5.44069097166897    2.16863245047801
H         4.01757228562362    6.71020053209586    2.84714587569050
H         2.37843062857844    7.10479462971758    2.28230999323785
C         6.88913053664155    0.48439790802775    7.35241010404311
H         7.76909391274877   -0.03202319845416    7.70630830794667
C         2.75181621883376    7.08154011092872    5.05845645561793
H         3.79924473940399    7.07152946170565    5.38001790991163
H         2.11740843210957    6.93169243919184    5.92816265890166
H         2.52802481106959    8.04959870745524    4.60969946528876
C         1.54831014683337    3.35761750592160    0.79938620130489
H         2.04160254256110    4.17732491005327    0.28476382291854
H         0.80384028728711    2.95036996130600    0.12302531228283
H         2.29383049535442    2.58791219607415    0.97957044324247
C         6.81430126375351   -0.65255245059705    2.28184623033432
H         6.81296499452963   -1.39911945062154    3.08314191363084
H         7.81888101672619   -0.58516488517031    1.86130596536159
H         6.11374788806269   -0.96310333902986    1.51180417787125

