123
CSD_code = SUSLOJ | q = 0 | S = 0 | Stoichiometry = C42H68N10Si2Zn | MND = 4
Zn       12.30760428732242   13.64389251043464   14.08186235935726
N        11.09289223903149   12.18689167715085   14.56416991623087
N         9.68520443357215   11.50529956447861   16.31888782021559
N         9.76679226541636   13.69941984820646   15.76819449766475
N         9.40186631114204   15.97928308128607   15.72464748116696
N        11.38406711566724   15.13917153551951   14.84242613695532
N        12.41809075231398   13.78128766289260   12.14254709953260
N        13.45382491838854   12.75802399895109   10.29199202921063
N        14.62509199097372   13.00757697814737   12.21497720663643
N        16.34325880096249   13.13095155440280   13.75195335259481
N        14.14729241431349   13.27343125131615   14.50869731525005
Si       11.86145950139502   16.81309669532070   14.65932695061296
Si       14.82375745715816   13.22904703344392   16.12100647495582
C        11.15516931222827   10.93951108574287   13.95540561318775
C         9.99750582950114   10.27726768788078   13.53473790804058
H         9.03578308667216   10.73177258501920   13.72564773085725
C        10.08391571645839    9.07107205094892   12.86757183107602
H         9.18017412687871    8.57331715360162   12.54496976152524
C        11.31795466823593    8.49827476391502   12.60656523246330
H        11.38138857005923    7.55223818036964   12.09018114747933
C        12.47173357107079    9.15929984454921   12.99984826456289
H        13.43892196863735    8.72446157784798   12.78887818417469
C        12.39670306250390   10.37022518518599   13.65998539340578
H        13.29269362452493   10.89338214578775   13.96221877487358
C        10.23024754874353   12.47691409735626   15.52481882085179
C        10.40705716857494   10.32177201000676   16.73164120616387
H        10.77669595481306   10.47797971695132   17.75807305043577
H        11.26574821504192   10.15741199390533   16.08310852499032
C         9.48514243572523    9.10431006335502   16.71890774768734
H         9.14950251384548    8.92240646515216   15.69701505989221
H        10.03994829551285    8.22754836122918   17.05640288999922
C         8.28372757321054    9.35992955580816   17.62440459246460
H         8.62166422492088    9.45122977554678   18.65966632812069
H         7.58529768320544    8.52276329146203   17.57151282952734
C         7.59243672584933   10.65245137851081   17.20118747803680
H         6.76516152565841   10.88057916828599   17.87523398691098
H         7.18967566557169   10.53418238780209   16.19355685091129
C         8.58629651947193   11.81355625769251   17.20672479306480
H         8.11733939661445   12.73082199709295   16.85396817645456
H         8.95713679343403   11.98207698682443   18.22770088665357
C        10.23880262262261   14.86261216674480   15.39312825310346
C         8.18233401733889   15.93644473762942   14.92675706717553
H         7.60411702803268   15.02439935471496   15.15265687909511
H         8.47875163142397   15.90421482251550   13.87624221952393
C         7.31775723334390   17.16429050469080   15.19491384828364
H         6.40480771805832   17.09744354130786   14.59993217847080
H         7.85978510809864   18.05968880597652   14.88773035306615
C         6.98492357479055   17.26465877464614   16.67941485595485
H         6.41745553063586   18.17569899332525   16.88019339262202
H         6.37015817178611   16.41116962479209   16.97611908554699
C         8.28341815159800   17.25733801696421   17.47839728025732
H         8.07646691203821   17.28471960837954   18.54988958598249
H         8.87289350300639   18.13800915163599   17.21762045594497
C         9.08218889158132   16.00182567345293   17.14652716538337
H        10.02452929296609   15.98662572878587   17.69826630079917
H         8.50300155659108   15.11126860858888   17.43627271014481
C        12.15815591621152   17.63752668305484   16.35851047990593
H        11.23035035854796   17.95585958793179   16.81772035222115
H        12.78731512777903   18.51445275449533   16.24491866085545
H        12.65639555177746   16.96052070491136   17.04612344497514
C        10.73832146283841   17.87812954303266   13.54388348962783
H        10.39132581970699   17.31642282611462   12.68236478932625
H        11.29272789252422   18.73535966128131   13.17517491193540
H         9.87157476076458   18.24829527810195   14.07631045251376
C        13.54809554712395   16.70216326535424   13.77070298260460
H        14.19266359059903   15.96271967591298   14.23471044757243
H        14.06710439598297   17.65576168529036   13.78564390236124
H        13.41909978816529   16.41638673509376   12.73161839491736
C        11.47338482247126   14.49554869796325   11.42008986058407
C        10.12893237570798   14.43675377163115   11.79435018064239
H         9.84166567535387   13.77218566807252   12.59694411556786
C         9.18698449425647   15.21162863756673   11.14684825628130
H         8.14829785923469   15.14871527625880   11.44072212884247
C         9.56281895359905   16.06728126787099   10.12314931483554
H         8.82396109214158   16.67553481945736    9.62329258328547
C        10.89585798675487   16.14029957811132    9.75234802302369
H        11.19947472885192   16.81265845006290    8.96269384958578
C        11.84414113811807   15.36416134217637   10.38776483858816
H        12.88484995110813   15.42804355300080   10.10398958257246
C        13.46030766450538   13.17857896378883   11.59350639424025
C        12.25969997705506   12.27422175946505    9.63259505827154
H        12.31535407040868   12.56710034275315    8.57721290039236
H        11.37323433533693   12.73084817141916   10.06786259164230
C        12.15900065473785   10.75045424005254    9.75150703271995
H        11.27422715779773   10.40611962332470    9.21324405314803
H        12.03885516591924   10.49134174979545   10.80474167441014
C        13.41358548228968   10.07840977523034    9.20113733341409
H        13.48159764362384   10.25667097713399    8.12447459172374
H        13.35832659993838    8.99991005532241    9.36056710806791
C        14.64854426079695   10.65428877776194    9.88821958569933
H        15.55902966934681   10.23180487263251    9.45957779922365
H        14.62382373320980   10.42005181574426   10.95368558882546
C        14.65231146478905   12.17330293047733    9.72779494511237
H        15.51192469017394   12.61483645312978   10.22934967298844
H        14.67643623632232   12.43430056493376    8.66332789151222
C        14.93433198394566   13.16436498962485   13.47650770828302
C        16.96968518474695   11.93252439783627   13.20703454927553
H        16.87949230103094   11.90387803986386   12.11029334393902
H        16.44022155726794   11.06809353326642   13.61390055027048
C        18.44372432540425   11.88613405510131   13.59528424311449
H        18.53083326475437   11.86300270671922   14.68287866498866
H        18.89482172042834   10.97619468592394   13.19495159442826
C        19.15971325364097   13.12140410759913   13.06074942584695
H        20.20672360666227   13.11936117023831   13.37051587726477
H        19.13001059950739   13.11685795284601   11.96837181522071
C        18.45266936301237   14.36605189500880   13.58545941529112
H        18.54546557540308   14.39871758284667   14.67241647854657
H        18.90670191852231   15.26964503437907   13.17445486668200
C        16.97587280590746   14.32666163115967   13.20668775417237
H        16.45408024266608   15.19640391149373   13.61250974587742
H        16.87677349132726   14.35181709736298   12.10863549424390
C        15.76301737617477   11.60755811767494   16.49845455664403
H        15.26409470051359   10.74466424975071   16.06749271704324
H        15.81679107240739   11.45236707025488   17.57135258657604
H        16.77579125131422   11.63133573246767   16.11682049339911
C        15.86850374501361   14.75641224516173   16.58935877936701
H        16.81443273881253   14.78096428619837   16.06287890706848
H        16.08271112915451   14.74269236696825   17.65340848780658
H        15.33905494037733   15.67945242652638   16.37293537059830
C        13.27978382699718   13.23897216772305   17.24740633492897
H        12.60084180816999   14.04169374999172   16.97552046601684
H        13.55352453649493   13.37418011059619   18.28918300723951
H        12.72835837595300   12.30670687626849   17.17247416630756

