53
CSD_code = SUSPED | q = 0 | S = 0 | Stoichiometry = C26H20Cl2N2O2Zn | MND = 4
Zn        9.15662932867239    6.35781107917027    8.17623568914596
C         7.79992002717131    4.73725303520746    5.87016197682140
H         7.53740983973842    5.71412794052671    5.48878605385227
C         7.42367654301687    3.57482724572320    5.16888995913792
C         7.75572073009518    2.35691807684802    5.73757081602352
H         7.50219669758115    1.43131191066767    5.24116031994319
C         8.44936082874612    2.31501241924221    6.95361408298327
C         8.81994609472994    1.09380707841858    7.58920779688954
H         8.54507601690913    0.16694545545968    7.10770696094538
C         8.79346650685439    3.54466748809314    7.55943127438892
C         6.70839717106247    3.67510975178018    3.89612282413313
C         7.00388634997901    4.69176722573148    2.99156953337120
H         7.78743455238086    5.39925239131068    3.21724165188550
C         6.33762835212998    4.79425701903775    1.78547195752924
H         6.60388039614202    5.59038630158157    1.10879686981403
C         5.34081077549803    3.87830552664489    1.45855551335109
C         5.03753500554829    2.85673297009935    2.36385577608295
H         4.25951847569280    2.15740246391013    2.10217619800625
C         5.71342929393350    2.75503466331494    3.55699343507737
H         5.44727898255965    1.97227546980424    4.25137632650888
C         4.85856843693467    4.90264160937187   -0.63382889621065
H         4.66099890867822    5.89429864140031   -0.21559402375699
H         4.16497081415328    4.71187477502771   -1.45093119024015
H         5.88416078773662    4.86386492102813   -1.01376337822241
Cl        7.48392538988224    7.21701631963174    9.30931576131552
N         8.45163632143178    4.71895191185224    7.00633534383202
O         4.61943015308359    3.88657481693890    0.31231706149397
C        10.51331681180463    4.73723295277869   10.48231738509186
H        10.77585984716512    5.71410250317995   10.86368553328652
C        10.88947721862594    3.57480328342876   11.18362766945204
C        10.55740248414752    2.35689861092872   10.61495588185393
H        10.81087508202197    1.43128963154885   11.11138784441183
C         9.86379332863664    2.31500275698600    9.39889427393074
C         9.49316826116263    1.09380257109006    8.76331354316737
H         9.76800038832380    0.16693705327546    9.24482852151092
C         9.51975128437048    3.54466241129479    8.79304987753484
C        11.60470326870286    3.67508427928614   12.45642485525147
C        11.30919905517470    4.69176499406383   13.36094669036984
H        10.52567713092189    5.39926403381610   13.13522722500270
C        11.97540653259147    4.79426049184289   14.56707192458784
H        11.70914499852860    5.59040941002802   15.24372035869962
C        12.97218683828022    3.87829065652446   14.89404885574928
C        13.27547627883135    2.85669340142286   13.98878078299275
H        14.05346496289456    2.15734959388170   14.25050732419220
C        12.59963156649616    2.75498925112513   12.79561553732701
H        12.86579086190800    1.97221053309071   12.10125772388877
C        13.45435241897186    4.90264299179193   16.98644353624467
H        13.65200133457317    5.89428866496950   16.56821976443024
H        14.14787836724538    4.71184595821611   17.80359937645452
H        12.42872867655443    4.86391680019425   17.36629982233951
N         9.86163100364918    4.71894161328315    9.34612650291618
O        13.69351610550053    3.88656151421272   16.04031959973080
Cl       10.82927311257837    7.21712552991929    7.04315389547891

