79
CSD_code = SUSQUS | q = 0 | S = 0 | Stoichiometry = C32H40Cl2N2P2Ru | MND = 6
Ru        9.64916112765793    6.94657275397715   15.39372811388367
Cl        9.67067209567040    8.70458218664319   17.00694013871933
Cl        9.69271823935996    5.38280854931283   13.59098101100796
N         8.29519066041017    8.38937198910843   14.09846258997186
C         8.12355108170820    7.97296026165628   12.70555504988291
C         8.77081096543633    9.77479387380241   14.09799286315043
C         6.98648464935139    8.39199577810869   14.77523213223286
C         6.41113028639428    6.99480551813597   14.97288346955549
P         7.64073767686808    6.09139137611214   16.02637167304199
C         7.30508956217246    4.32481284968320   15.72081369922333
C         7.03984819135874    3.82290811476737   14.45129254811678
C         6.90449292921729    2.46009907964393   14.25470761413887
C         7.04238107359086    1.58291499155043   15.31670363011367
C         7.31816848137863    2.07318005940773   16.58265633615424
C         7.45266877337441    3.43338866842307   16.78166360825566
C         6.82872943424487    6.26690461035990   17.65770277372362
C         5.56290947410619    5.70758648507378   17.83262211837898
C         4.91357542312372    5.82074950282128   19.04539400058807
C         5.51827384429102    6.49294868695698   20.09768865081099
C         6.77014360710922    7.05470830725565   19.92706238707679
C         7.42508262592035    6.94324129572498   18.71126789292552
N        11.75527467106516    7.66309945655207   14.59092015803425
C        11.80533761557844    7.77464543591995   13.13121248446839
C        12.21933760182660    8.93191903842563   15.15481442444785
C        12.69120402980664    6.58843263948738   14.96469261642601
C        12.65949781546858    6.25702342557056   16.45164370640332
P        10.92649410098800    5.69869790024878   16.80214322357278
C        10.72699924932235    5.91931844568480   18.60200478762650
C        11.19101298784824    7.04822119582627   19.26886043331166
C        10.91790643968522    7.22553689591004   20.61351423567874
C        10.17243620404522    6.28661497224513   21.30563847561201
C         9.69721797039749    5.16436602285836   20.64708496999896
C         9.96867042742306    4.98493811488773   19.30463875329301
C        11.17925821164745    3.88612693691478   16.75159446543408
C        12.05606106167265    3.31189221930046   17.67210332216553
C        12.28125559831385    1.95008854659912   17.66300889217390
C        11.63546712893475    1.14478453718364   16.73605621971657
C        10.76978483895740    1.71005061551834   15.81795871008340
C        10.54099999714346    3.07649841350904   15.82408335595487
H         7.35760973673119    8.58519197702168   12.20940673495161
H         7.84285467973444    6.92421615032253   12.64690118363205
H         9.06282503335048    8.08284278038882   12.16648919138005
H         8.01753194030332   10.44276881134029   13.65766836698140
H         9.68110876666071    9.86106694934684   13.50733458772881
H         8.97572907451549   10.09602698570039   15.11955485939424
H         6.27974038011640    9.01483085421581   14.20086876816080
H         7.12711757217037    8.84842293989460   15.76250208754624
H         6.27230229396108    6.48096552069059   14.02081775457449
H         5.44596787695015    7.05929376903796   15.48168854726081
H         6.96268639221742    4.48684051244482   13.60400576515040
H         6.69999727690535    2.08183471861240   13.26363103936905
H         6.94057971237874    0.51916100563280   15.15791144978831
H         7.43538737279798    1.39341568929076   17.41440041406812
H         7.66607700323504    3.82003310417983   17.76878901520644
H         5.09538965051442    5.17155962214748   17.01643939927563
H         3.93398646593512    5.38262868514406   19.17417490814233
H         5.00840303849979    6.57710850216827   21.04653774536448
H         7.24593525586607    7.58268105884568   20.74018998790839
H         8.39472723792358    7.39574508987248   18.57843394721681
H        12.83993095555360    7.91565978658043   12.78878153961999
H        11.22240979991140    8.63137789990094   12.79776860509120
H        11.40154877569592    6.86941176110533   12.67696612773814
H        13.26552309422399    9.12056883684846   14.87624795456510
H        12.12765422542973    8.93046444475732   16.23821175912253
H        11.60543976034718    9.75040964994230   14.78329841718849
H        12.40121864711752    5.68998504668806   14.40644672253489
H        13.71334110924876    6.87234284103755   14.66139779990929
H        12.91187157667191    7.12586537240862   17.06088776880864
H        13.37100703814091    5.45635449616334   16.66900029330125
H        11.74454302702598    7.80865499555196   18.73976413688376
H        11.28183723310619    8.10772875048111   21.11988701367105
H         9.95753047930877    6.43095362181285   22.35450379914321
H         9.10831726530164    4.43133177657973   21.17953135052108
H         9.60089586962546    4.10862278680275   18.78875657123258
H        12.55082148699335    3.93708461439679   18.40448153078542
H        12.96023908267490    1.51223992907084   18.38094279388141
H        11.81233071008725    0.07890220978979   16.73320113386499
H        10.26584683029846    1.09052006517672   15.09095308404878
H         9.87660011973307    3.51430663742799   15.09643030968672

