49
CSD_code = SUSQUU | q = 0 | S = 0 | Stoichiometry = C16H22N4NiO6 | MND = 6
Ni       -3.97912619046632    2.81802739640382    6.04603376949172
O         2.59645739269988    2.80946976595418    7.91671303479318
H         3.50218050119803    2.59071239459553    8.15614775726139
O        -3.79902241893134    1.75462752793186    4.46627885511932
O        -3.51239833380245    1.50658602544217    2.29413245237939
N        -2.13948931622309    2.48882503266223    6.46011835334595
N        -3.34429655429523    4.43760817111231    4.33487052598368
C        -1.35425279337846    3.44007224506379    6.96106448758712
H        -1.80431321849069    4.41304202306339    7.10897588333252
C        -0.03269634618830    3.21543463969435    7.30455814537422
H         0.57707204633167    4.00773139025781    7.70612963394540
C         0.51008833257502    1.95020295673841    7.12776846490089
C        -0.31712952740974    0.96232836725341    6.60249208416089
H         0.05415668682117   -0.03816738230989    6.44091649477336
C        -1.62498538461855    1.27227272712221    6.28263650685146
H        -2.28226025882947    0.53193667017179    5.84644426537705
C         1.93674582288795    1.64373409050824    7.48822870869173
H         1.93844883351652    0.87838010158070    8.28136301950837
H         2.43658083183595    1.21151571089215    6.60666223959123
C        -3.74255724555553    3.74814285936232    3.10645896667100
H        -3.13845603132166    4.02162680281304    2.23263435495656
H        -4.78893165593188    3.97975806383147    2.88594039929431
C        -3.66670700061349    2.19882715175169    3.28427078743264
H        -3.69479489092334    5.39056709749042    4.34328878507644
H        -2.32866362009013    4.48696219727765    4.37378010479816
O       -10.55494321321067    2.82612095255153    4.17643227201304
H       -11.46073140811019    3.04475053384062    3.93712365048838
O        -4.15888680745397    3.88142925031882    7.62579572553220
O        -4.44459962686787    4.12973672961808    9.79813457702806
N        -5.81880732693902    3.14724356357330    5.63218850750576
N        -4.61399754495340    1.19850371366712    7.75722472338345
C        -6.60392775008459    2.19601076777141    5.13103752973616
H        -6.15369120801042    1.22320428340903    4.98271717383975
C        -7.92543647734245    2.42062268362738    4.78739508137130
H        -8.53507778846772    1.62836386670343    4.38558716000721
C        -8.46835448997046    3.68577537408254    4.96437127160129
C        -7.64128491624557    4.67362535189920    5.48991811976659
H        -8.01272226990995    5.67401364933446    5.65178704244291
C        -6.33341595746966    4.36374600428242    5.80980086504958
H        -5.67620997724935    5.10408753726864    6.24610488812475
C        -9.89505102693259    3.99210961829221    4.60392867902299
H        -9.89676902054802    4.75682413225550    3.81018197664170
H       -10.39473276821534    4.42508569667328    5.48519541995119
C        -4.21562285204753    1.88793214268602    8.98563127980874
H        -4.81971482989554    1.61464455210982    9.85949803313668
H        -3.16934372795354    1.65602929009788    9.20617129126362
C        -4.29122313989957    3.43723442847117    8.80787245579178
H        -4.26349723888320    0.24555667322972    7.74873657882189
H        -5.62960829412956    1.14912517757347    7.71845761697375

