60
CSD_code = SUSTAB | q = 1 | S = 0 | Stoichiometry = C28H24Cl2N4OsP(1+) | MND = 6
Os        5.38781111851123    2.53619631457073    2.90506349477560
Cl        6.67600873074880    0.67748840104146    3.05708157189900
Cl        4.67950444977746    2.30821188312301    5.10353327673818
P         3.14167226899333    4.57162272248131    3.82069800216161
N         4.33419780485481    4.08388572353923    2.86758127156107
C         3.72407062819618    5.41396814461154    5.32989385592775
C         1.83105454302942    3.36979408802741    4.20660997454252
C         1.09977595090473    2.91671071237003    3.11248383560195
C         0.07345365951944    2.00847789455606    3.29773827282140
C        -0.21712881636129    1.55021251144384    4.57328870976251
C         0.51663944072811    1.99984427055574    5.66025653426567
C         1.54437019676843    2.91007561895580    5.48370318317308
C         2.25976641251986    5.87306878596965    2.90933681273599
C         2.82838592597522    6.43059875499326    1.77387397195708
C         2.16916331348188    7.44582299567068    1.10301529970725
C         0.94679291012769    7.90216453178823    1.56865385696800
C         0.37883161038672    7.34453818881060    2.70419760495466
C         1.03334562496540    6.32884199707942    3.37627969891673
N         7.06780926390720    3.64266312064018    3.16808279295599
C         8.81502722481665    4.73485924402482    4.35686407233128
C         7.62346697168908    4.03632996634615    4.31139044692568
C         9.45697098249933    5.04075683516983    3.16206519656500
C         8.88536534214890    4.63277638887073    1.97185193228061
C         7.68392769102411    3.92456598077748    1.98887619762646
N         5.90166903596461    2.71394542758076    1.08274273003520
C         7.01791666659669    3.40571632150400    0.79815338314383
C         7.43575636655568    3.53007826227488   -0.52646238003734
C         6.68733507215119    2.92388567112239   -1.52155013010959
C         5.55491803716224    2.18341299679519   -1.19456136550493
C         5.17951418637695    2.08400243806603    0.13858353423810
N         3.92268639331285    1.30126264374162    2.02588820611230
C         4.06430993501069    1.28782844638520    0.67689558076233
C         3.21766500232284    0.50984266966358   -0.10750929190167
C         2.24826525960986   -0.27262976554009    0.50051079535968
C         2.14457321005059   -0.26730379289581    1.88231844282623
C         3.00421323141248    0.54440699790620    2.60637619382135
H         2.87517468852524    5.91483051105539    5.79160897608081
H         4.17058450088830    4.69072726164436    6.00755776821872
H         4.46504416444600    6.14971219861285    5.01823992307424
H         1.33659814411740    3.29556141714664    2.12492578230547
H        -0.50235477383837    1.66452944965136    2.45126448144871
H        -1.01972738459696    0.84389822695488    4.72131977169477
H         0.28622972729710    1.64081985547076    6.65145309973624
H         2.12590595548804    3.24890712264678    6.32588550058501
H         3.78283037317019    6.05554822766596    1.43133537583612
H         2.60770329240142    7.88221574890282    0.21840074853999
H         0.43314850315544    8.69446691145055    1.04601917678092
H        -0.57322365490441    7.70303700737168    3.06440474631796
H         0.59526298972846    5.88232685731942    4.25893230858747
H         9.23234253590547    5.02819739094352    5.30596076991477
H         7.08811928399148    3.76847564443384    5.21527163408316
H        10.38997334278955    5.58194579107062    3.16235065706448
H         9.36766552155181    4.85009183733864    1.03304967746559
H         8.32684728806921    4.08153256333614   -0.77574329011830
H         6.99037184937931    3.01026497136438   -2.55273404310014
H         4.99081337587208    1.69256780106804   -1.96984255731785
H         3.32249763423312    0.50550975314002   -1.17997256294885
H         1.59371144718769   -0.88623178820009   -0.09901360545821
H         1.41946460288994   -0.87660850932595    2.39559184567113
H         2.96701094642015    0.58465035712316    3.68812824948558

