45
CSD_code = SUSTUV | q = 0 | S = 0 | Stoichiometry = C22H14N2NiO6 | MND = 6
Ni        1.68869622316209    2.79439907887712    7.85802454465283
O         1.18907712872760    4.16244006790803    9.18470541712789
O         1.96435338767327    1.30351553997344    6.41578319542540
O        -3.57421451366654   -1.00685815478469    7.34703050127141
O         2.19776313216834    1.47156329436114    9.22694491184763
O         1.40260552117636    4.23653754772438    6.36897400765647
O         6.94442567802673    6.57956670565769    7.19779667908284
N        -0.12181566651173    2.18127930479860    7.74538915043047
N         3.49786984548848    3.40412368769374    7.71357237696387
C         0.02013959543531    4.64505716794015    9.34172689617135
C        -0.11629609510852    5.92790811753231    9.94376349757847
C        -1.34080677820768    6.44815556848362   10.25398360997377
C        -2.51695272368326    5.75289396848262    9.94397281941224
C        -2.43502152499593    4.54100162721949    9.31448275165090
C        -1.19261802049529    3.96877425550317    8.97895175866023
C        -1.17471878862307    2.76524204185035    8.22894888708575
C        -0.22513419837407    0.99113087807539    7.00042470560532
C         0.78797497830315    0.68826880035488    6.14774205730181
C        -2.43931827987867   -0.37400968211383    7.23689432960679
C        -1.41624857967339    0.23407938306457    7.05498350697477
C         3.36865074117287    0.99820972413548    9.39737375398727
C         3.51078099049397   -0.25964698054142   10.04879544265300
C         4.73793116037669   -0.76562920957632   10.37197482082303
C         5.91118014667038   -0.08180741352476   10.02759297001911
C         5.82349575850247    1.10461610295328    9.35205723095756
C         4.57820089704694    1.66200220632164    9.00258363204064
C         4.55430789840174    2.83780068260352    8.20991143471290
C         3.59530235676869    4.56980024192968    6.92952604073365
C         2.57641605102213    4.84468774650133    6.07467254959880
C         5.80933400699392    5.94292014510114    7.11354099471135
C         4.78590637147529    5.32937338883940    6.95332050236508
H         2.53704890473194    1.31542164529985    5.63529941769664
H        -3.43530725256911   -1.95720476078135    7.43565102626903
H         0.79607875927277    6.44640517355714   10.19589374090261
H        -1.40537215186970    7.40912455663126   10.74426278953285
H        -3.47674936974230    6.17905260102185   10.19243399705825
H        -3.33496084933857    4.00091481912971    9.05450661203895
H        -2.14762255774910    2.32897872192770    7.99626180763496
H         0.82564263136468    4.19871296059053    5.59252153531086
H         6.80441110031707    7.53057716528402    7.27878967357046
H         2.60071577064855   -0.76902585940831   10.32655026260260
H         4.80684366591764   -1.70628358117402   10.89963465688184
H         6.87313789384076   -0.49673047384662   10.28648144048311
H         6.72098772483714    1.63546888029602    9.06591670448828
H         5.52527903047749    3.26639231813057    7.95595135845339

