88
CSD_code = SUSTOR | q = 0 | S = 0 | Stoichiometry = C31H50BN5Ti | MND = 5
Ti        7.91562072475349    4.07568525503534   11.86560633188852
N         7.09914943393769    4.87491464362618   10.31181070516713
N         9.20819458736606    2.90622685935297   11.07649895112806
N         6.60795836322502    5.49414446858098   13.06893399777033
N         6.85662314358849    2.84334180665755   12.83721889354776
N         9.13697011231590    5.33429763205297   12.55034363439115
B         5.99692773218728    4.63272852227637    9.53017077816855
C         4.92637109446531    3.48706312766407    9.80670146166505
C         5.61403599319836    5.37445907052515    8.16614758367536
C         5.73805437703698    4.33736009986650    7.03500950159354
C         5.00581391636753    3.01106177537538    7.26584032207350
C         5.12797573732910    2.45155580204946    8.68571357130461
C         9.06372839486918    2.50714633228209    9.74575315312155
C         8.74482296528627    1.18304117960484    9.41621344170515
C         8.58685207694973    0.80043456466648    8.09803568205303
C         8.76167901953560    1.71788433831735    7.07478118174841
C         9.10011201022905    3.02543330579996    7.38406517412973
C         9.25021615400379    3.41940797243653    8.70052620131831
C        10.19974072930415    2.34058464610499   11.82943004097108
C        11.26929352319467    1.61820515615533   11.26759488488882
C        12.27203806593943    1.10012556644430   12.06059918109216
C        12.25739119386085    1.27936174855263   13.43437721253326
C        11.21562330239572    1.99510586090591   14.00699035916034
C        10.20351735189578    2.51705007526765   13.22849551049574
C         6.26001574179492    6.80529268527683   12.53720210474736
C         5.39734495781511    4.73242374788606   13.33968166605682
C         5.74585379566004    3.27692461781849   13.65664666599788
C         7.45791028042185    5.63210840001357   14.24832998674767
C         8.87270109244821    6.01572617659434   13.79314147958892
C         7.08352473408433    1.40813714768171   12.90650600644424
C         6.03261521378596    0.58583572235051   12.13408831239054
C         7.19130928087825    0.86594321147395   14.34694877677229
C        10.32502682801693    5.77237897846536   11.85058107169194
C        10.16212196597761    7.17171575446643   11.21587311504827
C        11.59578425394961    5.75383253454703   12.72002248665451
C         3.50143970600796    4.06477097179230    9.86355462964996
C         4.20903934662878    5.98416399083454    8.29993627168266
C         3.11741945545790    4.99215009795501    8.70560579124889
H         5.10492399389043    2.96665239939916   10.75711478280790
H         6.29100322420962    6.20119759695099    7.90620649147126
H         6.80302823802142    4.11823840061523    6.92385114515339
H         5.38902326946277    4.76928496169480    6.09052772113689
H         3.95393166026318    3.11560061728694    7.00392989300012
H         5.42080795048259    2.27178369892833    6.57259973589457
H         6.13467953589095    2.03967967571987    8.81018580068185
H         4.41405133176699    1.62714821653726    8.79565416137297
H         8.62239069578806    0.45874323795494   10.21073809983401
H         8.32938215491716   -0.22334330171231    7.86612536466324
H         8.64334940888983    1.41490521150033    6.04521807565523
H         9.26785686482456    3.73945269248830    6.58948665262789
H         9.53988000194668    4.43802434324573    8.93373090507515
H        11.30701495461045    1.47987183082618   10.19563694108477
H        13.08091058824020    0.55146839766449   11.59863185621362
H        13.04449803691636    0.87053472864792   14.04946081414376
H        11.19474012543085    2.14283836732746   15.07884130756598
H         9.38372481907862    3.07851600203151   13.67808217539686
H         7.16519280049754    7.36207300012675   12.30139660867401
H         5.66681310733228    7.38193690245856   13.26475717982992
H         5.68037266202295    6.68278936443845   11.62148301344204
H         4.81658997186738    5.17884244692094   14.16779297272191
H         4.79242083012569    4.76096683763546   12.42981253397286
H         5.97032827120248    3.18229922585995   14.73987582995580
H         4.84309170070233    2.66720759605835   13.47912628147591
H         7.05180989130250    6.37931428469698   14.95264852488870
H         7.50736005816082    4.66385868503609   14.75419038612969
H         9.58715827315394    5.73681695979616   14.59199812810205
H         8.94209157534712    7.11373687488142   13.68082109139262
H         8.05030830790022    1.21535603197052   12.42519796000190
H         6.29925633484616   -0.46861378364090   12.16203045061784
H         5.04241980448750    0.69530996151076   12.57196807408350
H         5.99932658390331    0.91262442392863   11.09716095745935
H         7.58760754007840   -0.14631889217176   14.32390810978467
H         7.86887687494976    1.48279344506066   14.93554098074649
H         6.21885196709846    0.83869846181285   14.83445104261760
H        10.48258170687193    5.05524223899070   11.03059420734267
H        10.99922737091330    7.37902293098369   10.55355178361107
H        10.13785002640439    7.94642227669595   11.98017722274154
H         9.23831278106241    7.21907303069837   10.63872278717880
H        12.47020887182418    5.92055755740701   12.09571044230208
H        11.56445866219212    6.53328680697847   13.47861176898865
H        11.69615281405431    4.78499807212825   13.20507497226823
H         3.41097498975890    4.63384686733151   10.79571221476949
H         2.76892546282180    3.25173223669625    9.91402209144093
H         4.26464299770068    6.77518475179336    9.05601471012213
H         3.91303447412749    6.45818283466345    7.35788393933649
H         2.22747838450765    5.55950039095341    8.99988982064172
H         2.82745464085499    4.40140871881705    7.83945807228461
H         7.71010675113593    5.62562853563197    9.98241779697848

