125
CSD_code = SUSXAH | q = 0 | S = 0 | Stoichiometry = C52H67N2O2PZr | MND = 7
Zr       13.45812123050400    2.85450476390786    7.50105451234443
P        12.19113263624450    0.40380103316447    8.01758296658462
C        10.54259586683707    0.71076146626831    8.80258324056720
H        10.03995893634655   -0.23486072336962    9.00978355807179
H         9.91450319496025    1.30632618833697    8.14055227070286
H        10.68547096907391    1.24896512187183    9.73820194625835
C        11.63811503221680   -0.86190153078258    6.79101331480276
H        12.49467572005275   -1.26323919292901    6.25662327267877
H        10.96503333543081   -0.39765435562733    6.07453049212644
H        11.11964820277314   -1.67440508420486    7.29904873370502
C        12.87616947863057   -0.71096144749907    9.31562514584640
H        12.16417103529768   -1.50133191797244    9.55290720746743
H        13.08540780327078   -0.13110973398934   10.21144112202335
H        13.80708627954158   -1.15482304805964    8.96728792168749
C        13.56504954143905    5.00495670307548    7.36037535326415
C        12.45849805449282    6.02751191777567    7.76831283879369
H        11.76087831309276    6.10910819523700    6.92583125253906
H        12.90264387729084    7.01277707990365    7.95533084577968
C        11.73724146661001    5.53426366508190    8.97952176230458
C        11.84851679581870    6.17264958496893   10.20973599643188
H        12.49176760407533    7.03464214464167   10.30600652724287
C        11.13414810643560    5.72449766316419   11.30446077556802
H        11.22720379490462    6.23150790395826   12.25334122023516
C        10.27939659062051    4.64197227049703   11.17728183226374
H         9.68585236020860    4.31554367460070   12.01884152275590
C        10.17811611289119    3.98329575739756    9.96311646034178
H         9.48211187752620    3.16231855966475    9.86590258361377
C        10.92813464500683    4.39877413906947    8.87256481371009
H        10.81266728212374    3.91277961579693    7.89935725793612
N        13.95955725033599    5.21520929928853    5.97189258064148
O        12.34452516198066    2.93772724896782    5.94388187510748
C        12.24590957617330    3.81964720709685    4.94354141300596
C        11.37163217762255    3.61516466744825    3.85815753883558
C        10.56548803331729    2.32069391282390    3.77445964996758
C         9.67295672464081    2.18804362373626    5.01716906044524
H        10.28290417078408    2.18890101152975    5.91909050102649
H         9.09855862870704    1.26310897317409    4.97673878396563
H         8.97780809473136    3.02410241247185    5.06581930819680
C         9.65522119182399    2.24617308916437    2.54412337971706
H         8.92678677016401    3.05353893561198    2.54315101010655
H         9.11082513882747    1.30318909823246    2.55980656427069
H        10.23160370415786    2.28241564540577    1.62310472683202
C        11.55509952451518    1.14855507595172    3.69712033354658
H        12.17124349523974    1.24642024027903    2.80523843114188
H        11.02326959169738    0.19927581527991    3.64543981920835
H        12.20802032928122    1.14826454163670    4.56874569475070
C        11.29465919563467    4.57057304950550    2.85121353253624
H        10.62546702184718    4.39245576930963    2.03095436093297
C        12.03736994891888    5.74144242392201    2.86248628382983
C        12.90753230427451    5.93557969482916    3.92501542815924
H        13.49452101741421    6.83737022274157    3.99690909300794
C        11.93322186293391    6.80507085277925    1.77946380468040
C        10.94727143414121    6.42770897499218    0.67053738306549
H        11.25355666251254    5.51178475240882    0.17075509717712
H        10.91571997498432    7.22205575951504   -0.07284413037264
H         9.94286340530002    6.29946813812119    1.06715177818582
C        13.31410100069492    7.00903371957329    1.14054603755335
H        14.03772507853605    7.36116200438583    1.86997773470618
H        13.25468387119691    7.74330425888198    0.33957939088806
H        13.67648408590769    6.07146313048409    0.72419139704686
C        11.45780906183889    8.11999803274265    2.41330089605806
H        10.48459322002480    7.98081739943263    2.87952878555536
H        11.37036347253401    8.89470985071086    1.65405283991124
H        12.15318629105771    8.46422356984275    3.17344969904993
C        13.04343635939760    4.99771908143969    4.93833339530420
C        15.20914671792059    5.80063141338312    5.91666359539409
C        15.98628479178207    6.18626135622116    4.84291520432118
H        15.62556845177762    6.09723756337624    3.83057114930260
C        17.27626563484386    6.65444950718031    5.09305044047383
H        17.89204946217986    6.96299617711711    4.26144171483748
C        17.77841964376929    6.71139431619737    6.37690424523627
H        18.78442094457731    7.06572833423612    6.54549196053655
C        17.01393323131449    6.29754819578929    7.46754414678214
H        17.43233905113497    6.29521689568219    8.46188964866051
C        15.72830692302434    5.85183516510647    7.23388095638829
N        14.80157601381805    5.28381197921610    8.08416110026988
O        13.89714508153447    2.98752846681116    9.35619012842062
C        14.39988639221578    3.97515193371830   10.09904187928212
C        14.52624091644755    3.87469360219903   11.49853740662893
C        14.15170638632656    2.57180997005680   12.20051240268124
C        14.35220004158131    2.61509630199103   13.71920161177434
H        14.05880218483043    1.65643069011148   14.14406489118314
H        13.73698132565636    3.38632054311035   14.17658984712052
H        15.39435827060852    2.78854762374980   13.97561333200163
C        15.04161343006110    1.45062064492413   11.64361522460143
H        14.92242765412359    1.36809749216992   10.56560443816403
H        14.78922058637627    0.49612994440816   12.10417825576267
H        16.08635393283983    1.66856145476267   11.85621925984150
C        12.67281644822628    2.25794396194962   11.93891811574156
H        12.47486384727025    2.25072248084119   10.86801415514730
H        12.04641865682483    3.02134777641202   12.39481462641506
H        12.40737242777044    1.28976974614571   12.36291112071579
C        15.03698924060829    4.95053985167211   12.21498434300990
H        15.11929571121376    4.85704272683468   13.28136211005644
C        15.44498892585234    6.13437136914597   11.61916028139810
C        15.34952249486435    6.21894122446698   10.23800357202827
H        15.64513203867666    7.11751969702804    9.71839691712812
C        15.97187592070080    7.32611390186826   12.40510360003227
C        17.38384435107786    7.67405353441858   11.91328550034622
H        18.04442322129644    6.81842250901879   12.03688384077277
H        17.78750708150558    8.50800981933597   12.48426512273969
H        17.37952845700279    7.95300984806771   10.86352263285109
C        16.04664768302588    7.05809206143053   13.91065366783402
H        15.06213148653075    6.84319198212475   14.31933394017029
H        16.43608281307327    7.93900919497830   14.41781771441280
H        16.71163731093122    6.22506250371941   14.12549868880326
C        15.03609761558075    8.52228794713262   12.17901069446435
H        14.99390375560902    8.79443418778945   11.12794516335821
H        15.38467197331328    9.38655885847008   12.74111541439449
H        14.02894379578225    8.27733849249374   12.51074490523357
C        14.85606156047746    5.16934972054919    9.47895536177729
C        15.42901925927898    2.48196150727445    6.48345568044089
H        15.27924338629676    2.54655117133906    5.39687622315074
H        16.21341037314528    3.16695147814538    6.82722336617503
C        15.59297709623183    1.12835155342304    6.97141291976791
C        16.31145128778472    0.85483282538238    8.15521461527554
H        16.75614338346313    1.68281899379570    8.69677272828540
C        16.49305051286285   -0.43666348776083    8.60033169359730
H        17.05871905273436   -0.61756213639741    9.50355319252260
C        15.97581829780857   -1.51193567836207    7.88682901361386
H        16.14458848914585   -2.52385813750271    8.22418629500214
C        15.25490354770620   -1.26944522245495    6.72613134944040
H        14.86727525315915   -2.10388588844773    6.15577181497499
C        15.04542425384762    0.02303141281832    6.28379792042601
H        14.51908094383107    0.19887674351887    5.34895863349278

