127
CSD_code = SUSXEJ | q = 0 | S = 0 | Stoichiometry = C64H56MoP4Si2 | MND = 6
Mo       27.99940816396445    1.11647685494975    2.86939840715558
P        28.32319136424135    2.25436822431653    4.88979584331535
P        28.08598265291139    3.34376468038626    2.06738276660781
P        28.30630623498662   -1.01937424469949    3.74471432469429
P        27.87503272194288   -0.21862166982691    0.91384137492732
Si       25.70204126825089    0.99866481400328    3.06022819009756
Si       30.44165040285499    1.06608912388158    2.99016041934543
C        23.82407762219923    1.09790697343465    3.27150120573447
C        23.19865758991127    0.75930721145086    4.47211206874421
C        21.83085007589220    0.89453131888461    4.61829786872768
C        21.06407745078278    1.37191492112138    3.56707111503346
C        21.67106974030672    1.71163348818731    2.36790121963590
C        23.03814589339823    1.57533154688445    2.22107133700700
C        31.78780975243158    1.74516165372778    1.83692926697140
C        32.30363453564355    0.98483813484302    0.79972114019587
C        33.26451944370620    1.49325926022789   -0.05483187708331
C        33.72443439062305    2.78760314545578    0.11419158249508
C        33.21241887014353    3.56470637516637    1.13949076016081
C        32.25292745763198    3.04273052051667    1.98579883672332
C        27.98364076577812    4.06339593391115    4.74292712226590
C        28.58989339183802    4.50626307104708    3.42554286064984
C        30.02560111710016    2.34669251578865    5.49101654840246
C        31.00945013231522    1.82374067260705    4.66018449383192
C        32.33477392390886    1.92774519954341    5.06087685743751
C        32.67199573877399    2.53931005237364    6.25369819697374
C        31.68211228695978    3.07362388582763    7.06714387823892
C        30.35791486585493    2.98330068449865    6.68677692931757
C        27.36796432847582    1.86223494743112    6.38754382487984
C        27.93387941860233    1.21792089843559    7.48210160801104
C        27.16329055756966    0.91558075146892    8.59042929419597
C        25.81649027233833    1.23206784830305    8.61293540351224
C        25.23604328894641    1.84324369429489    7.51312938924133
C        26.00621941410703    2.15151618650784    6.40923756421982
C        26.60092927630488    4.25977157015160    1.46840038711366
C        25.46891791338085    4.30149490639602    2.27664604864248
C        24.32005307059456    4.94887816349259    1.86479587484578
C        24.27880503119703    5.56030079130263    0.62246014793107
C        25.39420654465752    5.51784402263833   -0.19613866366675
C        26.54743147494046    4.87569355464967    0.22082663129352
C        29.27520398259588    3.83396751817519    0.78120616226993
C        29.80228533651480    5.11657047167396    0.64871617799815
C        30.69308095161242    5.39349479884961   -0.37111600766135
C        31.05709075924220    4.40608638160453   -1.27253057144276
C        30.52811578942948    3.13298961101445   -1.15236197346980
C        29.64796723983269    2.85264537286669   -0.12534017464149
C        27.42498180491911   -2.33363267248048    2.76066373001172
C        27.05618365514404   -1.83512363909667    1.36816132617586
C        30.01294353745940   -1.61999821603562    3.75297143117225
C        30.32554867979766   -2.93603157703045    4.09283393476720
C        31.63327982100869   -3.37207840452807    4.00616312787416
C        32.62443783025907   -2.49606971422110    3.58672078153989
C        32.30862313148136   -1.18630356781093    3.27419377226093
C        31.00187499029835   -0.72759830450849    3.35123987680261
C        27.75055060495677   -1.47362042257866    5.41751637102593
C        28.64612508130777   -1.71631110391302    6.45371407375562
C        28.18243980935953   -2.06306243160007    7.71015473427030
C        26.82285306383378   -2.14131206837898    7.95589234687921
C        25.92311411500085   -1.84679815590953    6.94386556330492
C        26.38494584946671   -1.51296003964555    5.68689788047953
C        26.76445523268367    0.21034224903324   -0.47470145153541
C        26.43050790545461   -0.70388938255791   -1.47180230843843
C        25.55579895683409   -0.34183484754650   -2.47859275555457
C        25.01328177034723    0.93413652847533   -2.51072785889802
C        25.35790324585486    1.85368628783104   -1.53524225725598
C        26.22883994586108    1.48737509804751   -0.52492609311673
C        29.27444228464583   -0.87563747636486   -0.06629586556426
C        29.61302152275965   -0.34625184680298   -1.30933530017419
C        30.69528142293503   -0.84595185669373   -2.01012526415724
C        31.45419344599385   -1.87817568906879   -1.48424131763769
C        31.12101550091446   -2.41497788888800   -0.25160234346179
C        30.03949857910362   -1.91667655114919    0.45051525487006
H        23.79454570708531    0.39467352934921    5.29792147968799
H        21.35836796060727    0.62950861940685    5.55364456060768
H        19.99537004094671    1.47964995405652    3.68246564406712
H        21.07471078686051    2.08473457626936    1.54752194004453
H        23.51078609743088    1.84350847599436    1.28567387589708
H        31.95111614479810   -0.02631925143026    0.66452822028207
H        33.65661601033921    0.87750720851915   -0.85361449523379
H        34.47834633790841    3.18995640671783   -0.54845890884892
H        33.56505018397988    4.57806847650368    1.27815112075022
H        31.86250952307251    3.65411023816595    2.78912335666382
H        26.90388958273684    4.23714090262624    4.75491623610776
H        28.42993280139526    4.59839784634998    5.58999833431918
H        29.68424645270985    4.43297040478970    3.48453986713950
H        28.30717343522616    5.53748959435527    3.18420019801391
H        33.11088211981814    1.53330536596416    4.42087240820342
H        33.70867283803001    2.61121719587613    6.55294432923046
H        31.94654363381128    3.56362628264096    7.99417941322043
H        29.58225840720494    3.40267746198124    7.31721854148845
H        28.98290008698609    0.95745300696366    7.46712118651461
H        27.61845466384776    0.43158014634643    9.44231318457030
H        25.21857843280980    0.99835247912380    9.48170367983677
H        24.18214561150127    2.08449183538587    7.51994394250055
H        25.54565044041846    2.61987228875598    5.54843744559354
H        25.48372382654154    3.80353695882057    3.23635164221536
H        23.45347943334841    4.97036831394016    2.51031651642216
H        23.38070168338757    6.06192638404483    0.29308876239665
H        25.36817391886504    5.98643787863194   -1.16984480958762
H        27.40461474632945    4.84261424113701   -0.43622293084833
H        29.51576012539600    5.90283623471105    1.33237440581847
H        31.10612622463469    6.38796418095578   -0.46537387384911
H        31.75519347020023    4.63113135372696   -2.06548223193218
H        30.81403377599571    2.35762587281464   -1.84745114117391
H        29.24025746777187    1.85683861207859    0.00423183332561
H        28.07736454170410   -3.21176058575915    2.70376463986779
H        26.52768033007159   -2.63140733630629    3.31324746902541
H        25.98037852904478   -1.62517347700988    1.31187299898162
H        27.29168331197227   -2.58829774357230    0.60912240161736
H        29.54718384851874   -3.61302774676563    4.42822436066529
H        31.88162886154559   -4.39306362844820    4.26195363293461
H        33.64675375979960   -2.84052416295691    3.51040842191118
H        33.08642798665736   -0.50965910112997    2.95057302185909
H        29.70999003887376   -1.64186630080250    6.27209025945191
H        28.88799746279287   -2.27173198643180    8.50192027455760
H        26.46272416798717   -2.42055618005986    8.93520391397218
H        24.86032529286137   -1.88407146042549    7.13798485518661
H        25.68183645662717   -1.27908382049267    4.89571817636108
H        26.86513024490958   -1.69406948624062   -1.46816157773727
H        25.29645677566704   -1.05633133635244   -3.24687081547898
H        24.33001618318254    1.20943006956073   -3.30093057059643
H        24.95267499488874    2.85560425473242   -1.55761096159613
H        26.51473243096462    2.19645402953121    0.24189999818710
H        29.01648053983796    0.44630527162593   -1.74065140228558
H        30.94617987721846   -0.42998643629931   -2.97580925969911
H        32.30063879636045   -2.26445216284907   -2.03322439941390
H        31.70647477985246   -3.22075387848612    0.16827968338608
H        29.79069452490051   -2.33524001517897    1.41446589474625

