70
CSD_code = SUTHOF | q = 1 | S = 0 | Stoichiometry = C29H36O2P2Rh(1+) | MND = 6
Rh       -0.21102847174847    5.77178608720936   23.32347749688842
P         1.96579974990727    6.38634073995495   23.59924484162280
P        -0.25517177666633    7.41073938396631   21.73506015175214
O         0.64717899524086    9.58603868112630   22.96514969902076
O         3.36532954824986    7.70054783776242   21.69916383414433
C        -1.36689983988985   10.80876827708676   23.42405603699106
C        -2.74351990371487   10.88091187778362   23.29337359134939
C        -3.45147751435505    9.89265583654935   22.62432840286103
C        -2.78983514006831    8.80194250622458   22.08732906816322
C        -1.40923199857718    8.72091737939189   22.20171697615747
C        -0.70131883999305    9.72632816663540   22.87234846508474
C         3.01162862983095    5.48903426083472   22.43709828692437
C         2.93508080977209    5.12644781711027   25.86314875165991
C         2.96330197706839    6.49945444859591   25.19216453855556
C         2.26833622707122    7.54644206556159   26.06252997805824
C         4.41322223619969    6.88493889021340   24.90771740100174
C         3.64003562227799    6.38064223478892   21.56109448224936
C         4.50681911712184    5.91108548604911   20.58604662229945
C         4.71768514775169    4.54687027908306   20.48341344196819
C         4.06933675579364    3.65492770412029   21.32678163061870
C         3.20964822762147    4.12174719895308   22.30506817346942
C         2.39175849511520    7.97860550057175   22.68797587099442
C         1.15094932048259    8.61596050616286   22.06154198499088
C        -0.31842615226688    7.21815714544346   19.86628527713945
C         1.02864398249034    6.65548308325449   19.41511271630710
C        -1.42268112149429    6.20662809006801   19.56062231706554
C        -0.29046017837439    3.92856790402415   24.45844658058126
C        -0.76205299596984    4.95054445341434   25.25670468774500
C        -2.27108659097296    5.01306065304954   25.03666718460232
C        -2.35351238598271    5.51590792453957   23.59643608690944
C        -1.88776743393718    4.49235995475534   22.79938858110090
C        -1.50946064073944    3.34949953486781   23.74080424616754
C        -2.58297613725146    3.52057920123746   24.82943783491238
C        -0.62127118125567    8.55143253890767   19.18949203387273
H        -2.39487265956953    2.91649694713754   25.71596825592058
H         4.90132817174492    6.13513869629458   24.28696013374469
H        -4.52240175496912    9.97191991089463   22.52396962471267
H         0.98852282377226    6.40538419956828   18.35685631575765
H        -3.34301980362404    8.03217628204740   21.56836286845559
H         4.23736920105297    2.59502879363831   21.22062993955028
H         5.39115174745063    4.17349494568877   19.72826634759796
H         1.45877722823847    9.12751573946172   21.13402867005417
H         4.99740830619877    6.60891553188632   19.92757366905725
H         2.69838138812047    3.43320726891896   22.96174947824003
H         2.72252774318805    7.57618684490511   27.05066311359241
H        -1.57076111858790    6.13236300876135   18.48522611081283
H        -2.36765943403893    6.50515742417386   20.01227894307309
H         1.92186418233088    4.82737513045713   26.11888794592220
H         3.37413240832287    4.37287098840908   25.21093693812104
H        -3.27025545294932   11.72255001784755   23.71461391844775
H        -0.80765825295147   11.57354261835492   23.93757350846352
H         4.95547699700088    6.94736901850448   25.84936376229392
H         1.20863028622092    7.31350838270828   26.17652965735245
H         4.49888653688817    7.85046930094863   24.41525427161307
H        -3.59377041328244    3.34044916309977   24.46641747039845
H        -2.07617950026988    4.34805295629932   21.74520546501987
H         1.27051797546979    5.74700261536890   19.97015353024585
H         1.83211558669060    7.37457421713303   19.55960634483798
H        -2.96578068255688    6.35644059924029   23.30083660197488
H        -1.60579777484852    8.91967394836117   19.47103385157863
H        -0.28136833888228    5.39623104929416   26.11698446801376
H         0.11488854733765    9.31296185840835   19.43870610068693
H        -1.14226789171750    5.22202242232218   19.93158537815955
H        -0.60449631868215    8.41678502884266   18.10967473433138
H         3.51871924048832    5.15544953380517   26.78122286522304
H         0.64116956478926    3.38993691363036   24.56498410606580
H         2.81136156002415    8.73011351797763   23.37082673941392
H        -1.39033283604745    2.36782009344789   23.29256999316782
H        -2.84939381613451    5.55802516366677   25.77626776482468
H         2.34711001504034    8.53973621919670   25.62380384004669

