43
CSD_code = SUTNUQ | q = 0 | S = 0 | Stoichiometry = C10H26Cl2N2NiO2 | MND = 6
Ni        9.60057723447206    1.68433981472102    3.01940233820079
Cl        7.91622685639384    2.38062308794687    2.08039924999371
Cl        8.52551245801107    0.37046323472789    4.19665596433906
O        11.42916456680127    0.70001368528072    3.71922579691610
O        10.82812733515041    3.23448558737918    2.18516312179985
N        10.30494931951729    0.19431326733437    1.17671994271475
N         9.73569150972872    3.41651169338380    4.77167365856694
C        11.60185269207323   -0.58920499430967    3.13058968592533
C        11.56697618293249   -0.40477355139424    1.60895989049794
C        12.92486792630400   -1.20110561368918    3.58723149511277
C         9.25440904033946   -0.81904910992250    1.07893433237877
C        10.44990572862204    0.82375685160735   -0.13130882432186
C        11.29293687950040    4.26818013287484    3.03990328404505
C        10.14346890369950    4.58931384648909    3.99915376880952
C        11.68397268511909    5.49548625174474    2.21904373400620
C         8.39810239539265    3.63169072086161    5.32311215232785
C        10.66051759098797    3.16411184505053    5.86986850649977
H        11.13301948551475    0.57010475627366    4.63141938503845
H        11.55412907699341    2.91011103777287    1.64327537764366
H        10.77246408245411   -1.23811492900798    3.43802638603079
H        12.38630198782013    0.26928987682674    1.34024633381907
H        11.74412553601520   -1.37540051552880    1.11965151736883
H        13.75582323192116   -0.55759691638950    3.30605581832446
H        12.93127330044824   -1.32412759177153    4.66808132540688
H        13.06342678409843   -2.17547405938303    3.12784123509625
H         8.32346627185325   -0.33249606174834    0.79257878361543
H         9.50968392813828   -1.58399124116086    0.32981443707905
H         9.09800198847959   -1.29978971709078    2.04176361268903
H        11.26635586508394    1.54550428395930   -0.12261818309542
H         9.52780730899073    1.35079327620766   -0.36996204909517
H        10.65279679477806    0.08114961310513   -0.91742377851891
H        12.16897795748372    3.91404441954451    3.60537293965973
H         9.29286067538603    4.89453658544981    3.38486742662152
H        10.43217109344148    5.42585171723107    4.65615780723599
H        11.98903931008944    6.30613860342365    2.87407294421832
H        10.83582798776043    5.82193486241937    1.62278030553059
H        12.51038793442948    5.26204793918703    1.55009001157338
H         7.68796668711415    3.77087876353733    4.50989365621284
H         8.37311491780168    4.50817919904105    5.98638946615005
H         8.09945159806139    2.74920775041966    5.88602768555427
H        11.66127540931641    2.96361260643159    5.49080096995447
H        10.31844946603585    2.29377342801591    6.42823048798842
H        10.71204201545289    4.02217556314983    6.55803800007467

