65
CSD_code = SUTPON | q = 0 | S = 0 | Stoichiometry = C26H26CdN4O8 | MND = 6
C         7.24016195391140    0.60255935853386    5.56384249339623
H         6.74339704790849    0.65157745583886    4.60297552409188
C         8.60420619815514    0.83014879703602    5.69185443012675
H         9.18354175563115    1.05518244082630    4.80961741623388
C         9.20151042433606    0.77000695748756    6.92840083245775
H        10.25325824346437    0.93944778476750    7.08071853707375
C         8.39240824443579    0.46818914555274    8.05945039690441
C         7.03723989688349    0.25375888660227    7.83810447317879
H         6.38676844300025    0.01695883800663    8.67644812893148
C         8.94237025576473    0.38774610050961    9.38125714552693
H         8.23531468515012    0.13973174911654   10.18486182949586
C        10.77849985569163    0.55982274092604   10.81107785009425
C        10.12028398718379    0.94002329415854   11.99051497588727
H         9.09639585763622    1.28658146507625   11.94464114219448
C        10.79418036671501    0.93937639337565   13.19192552516826
H        10.31287101314217    1.25468143626575   14.10578030936401
C        12.12502288650234    0.54851406838177   13.24038548174336
C        12.78847053689615    0.16498782757589   12.08383194985950
H        13.82096278413414   -0.14209272573409   12.15219680384020
C        12.13065913893312    0.19571574210403   10.87316554100644
H        12.63000135444811   -0.08796947127166    9.95875266918197
C        12.86884186765419    0.51840920570809   14.63119633319359
Cd        4.41184483292335   -0.00038004891775    6.44002515438111
N         6.45598050584542    0.31460719818569    6.63686953056759
N        10.19501004779210    0.57065823864435    9.57090517327477
O        12.32632999135386    1.20594874546281   15.48833283747531
O        13.85663743796528   -0.20804578579255   14.62356246796605
O         3.98370610181786    1.86379318798576    8.10692830065963
H         4.65865496823813    2.16946537242591    8.72347271946437
H         3.13663231706426    1.95751122084508    8.55706941635083
O         4.56353774105374   -1.94286332457828    7.99489247065509
H         3.90764933923365   -2.63641721740522    7.85926677860322
H         5.41639878014177   -2.38483720126241    8.07658924292867
C         1.58243152002945   -0.60171664248657    7.31432079280205
H         2.07851493388754   -0.65127567790322    8.27551507617213
C         0.21798362361062   -0.82646219346228    7.18561201376111
H        -0.36241685173532   -1.04944323243416    8.06767434562650
C        -0.37838459636319   -0.76606320071757    5.94863781938865
H        -1.43044338493602   -0.93310766976426    5.79584245044300
C         0.43218251479129   -0.46741518620604    4.81777108131967
C         1.78762211920791   -0.25546923252399    5.03985157473787
H         2.43916700509512   -0.02082485057077    4.20172924423323
C        -0.11668222581389   -0.38769877816804    3.49548052465433
H         0.59146834375035   -0.14263101765519    2.69194709981703
C        -1.95217991952777   -0.55823826497066    2.06467396330403
C        -1.29391370152465   -0.94243496248844    0.88655608197135
H        -0.27087115264741   -1.29126376317701    0.93400486880852
C        -1.96683640102840   -0.94282636910853   -0.31538810336585
H        -1.48547708684357   -1.26111500328662   -1.22818051507405
C        -3.29675520560119   -0.54906955613381   -0.36575522421814
C        -3.96025880213617   -0.16165298045253    0.78946828820203
H        -4.99202039098283    0.14755192979347    0.71964442504538
C        -3.30346134380942   -0.19120210969794    2.00071971750500
H        -3.80294241988651    0.09560076054433    2.91408438312161
C        -4.03941864299738   -0.52027995049856   -1.75721729868309
N         2.36790507213267   -0.31615556811390    6.24156881632462
N        -1.36962233325820   -0.56801875907760    3.30527934550362
O        -3.49728918030417   -1.21022022580091   -2.61268320339282
O        -5.02606093764679    0.20774819246471   -1.75172225858023
O         4.84096102095378   -1.86712489387053    4.77637851319620
H         4.16679459159724   -2.17478645997962    4.16022524493447
H         5.68847151463326   -1.96301436555594    4.32787513951331
O         4.25806726231342    1.94354996851989    4.88690378107465
H         4.91267240176625    2.63778571078951    5.02385787469388
H         3.40444379226795    2.38447647555076    4.80721025588310

