78
CSD_code = SUTRAA | q = 0 | S = 0 | Stoichiometry = C40H33ClP2PtS | MND = 4
Pt        1.99165956798846    1.89862329119993    3.56819227245821
P        -0.21351848899762    1.53457749016936    3.18042213444163
P         4.18848087938466    2.46620832586281    3.76520419207041
Cl        1.42070317992792    4.19257874386486    3.84221097547298
S         2.72094508761835   -0.63660302416869    1.65778990556609
C         2.44532476711513   -0.04345145084910    3.27547953676461
C         2.59575572251179   -1.06069628242305    4.16579407621862
H         2.47344898621912   -0.93438812089717    5.23013072574313
C         2.92759663866167   -2.30613394178852    3.57523367024104
H         3.08236903836229   -3.20996813729707    4.13927733905126
C         3.03032303085091   -2.23419737315140    2.22847626596556
H         3.26742201914286   -3.00602818184122    1.52450079220964
C        -0.89654167320417    2.79014365584062    2.06739069572550
C        -0.15857947106507    3.02137318118485    0.90806586804673
H         0.73465119792412    2.43179688938498    0.72922441525454
C        -0.55375832776890    3.99853903538916    0.01679894897334
H         0.02235035354807    4.18155088182507   -0.87862331119736
C        -1.68423340138650    4.75592454297331    0.28354869740774
H        -1.99036627572567    5.52855318357577   -0.40651745901161
C        -2.41077724215924    4.53673425483867    1.44145852166434
H        -3.28146601393286    5.13998473259739    1.65445713556198
C        -2.01992435149940    3.55723508896608    2.33897728481842
H        -2.57441690539876    3.40556329855327    3.25403191656257
C        -0.72101918976346   -0.05409168066264    2.45508927712177
C        -1.09876953279079   -0.20198253870438    1.12703839716466
H        -1.19186107555307    0.66672567558519    0.49039111065983
C        -1.35641283423538   -1.46387815699196    0.61977163125323
H        -1.64881285588009   -1.57560281876711   -0.41421701169350
C        -1.23043454562058   -2.58027561713739    1.42819481286788
H        -1.41984064177753   -3.56375475805536    1.02412225963300
C        -0.85686812600011   -2.43645505441701    2.75548968250678
H        -0.75490331395475   -3.30637082168292    3.38742606131938
C        -0.60251885851678   -1.17998794322868    3.26714882056938
H        -0.30029585018274   -1.05726174612009    4.29868073775440
C        -1.16950009554508    1.58403712462872    4.71494344977492
C        -0.49814696480767    1.93817126036633    5.87981022829720
H         0.56123565472111    2.17885651712767    5.82006208159354
C        -1.17814529699245    1.98407454876817    7.08323078534766
H        -0.66023233485892    2.26399780583223    7.98861838047258
C        -2.52687880005980    1.66960557428314    7.12440719146990
H        -3.06079328076659    1.70688894852348    8.06277325962549
C        -3.19501474590760    1.29945192024363    5.96672285693578
H        -4.24430852493438    1.04543952586656    6.00739369501350
C        -2.52006186489739    1.25118591797726    4.76091592174756
H        -3.03023389480968    0.94798163593029    3.85587811977522
C         5.38326008975229    1.13014931440293    3.45602285411323
C         6.00480603796602    0.93277985061986    2.23032238380393
H         5.85841414387474    1.64299642755630    1.42871443141910
C         6.80898545562668   -0.17700667637500    2.03629196345579
H         7.28925593469944   -0.32898684430369    1.08063517559976
C         6.99018598813028   -1.09459163458995    3.05652745071749
H         7.61012406682467   -1.96437083494688    2.89649168526140
C         6.37052146828990   -0.90155685320488    4.28158619139335
H         6.50723284761456   -1.61987008972487    5.07656484677052
C         5.56710374812179    0.20325971033099    4.47936529455793
H         5.06730072696135    0.36059749032242    5.42659821121607
C         4.42643205535789    3.60905907009353    2.37809227641270
C         5.16186454338316    4.78379655943830    2.43501469571892
H         5.67382963951874    5.06016092349155    3.34607243303975
C         5.21922630681354    5.60751415211737    1.32313763764037
H         5.78687988535613    6.52577240575477    1.36624615448332
C         4.54450786762488    5.26582395709130    0.16330162647525
H         4.58769432673043    5.91833958422789   -0.69651886714040
C         3.80408332992074    4.09451765374349    0.10625981583795
H         3.27161046031984    3.83308522110223   -0.79669776171452
C         3.74215591152047    3.26962774597030    1.21146081082392
H         3.16547210593898    2.34585457135114    1.19139867125121
C         4.88616989789763    3.29777840827860    5.21772799424646
C         4.02911411241584    3.86446939935759    6.15357426685597
H         2.96079093658496    3.80518062535563    5.99394622272409
C         4.54822588390418    4.51602483121106    7.25841797104136
H         3.88246232437412    4.95885577874309    7.98446155995169
C         5.91966890373233    4.60101002234050    7.43209400895212
H         6.32514772464800    5.10939570717801    8.29473784978764
C         6.77643875280234    4.03422125463607    6.50063355235692
H         7.84605270119395    4.10277862505736    6.63726908326184
C         6.26498670120923    3.38094690580210    5.39499956888923
H         6.92856377577803    2.93141133443318    4.66803359151544

