75
CSD_code = SUVDUI | q = 0 | S = 0 | Stoichiometry = C27H37N3O4S3Zn | MND = 6
Zn       -0.27894440704125    7.56011029703272   -2.22638372495734
S         0.89063592365712    6.39012207622103    1.90462508831637
S        -3.94760062890285    6.86986785155314    0.58829168016743
S        -2.79666836723893    8.47065325425576   -5.85772381040482
O         1.38960448690186    8.39532774743481   -2.15022904405612
O        -1.25673182018816    9.46158250478449   -1.43480962129330
O        -0.91697710610541    4.84518037694713   -4.92238189639178
O        -0.16257417671155    5.84435586941274   -3.08207012124640
N        -0.04421445559309    7.06715108901066   -0.37975324392903
N        -2.55841592805362    7.13110026050420   -1.63745481002099
N        -1.00497120250195    8.18509047438670   -4.03074303843048
C         2.40878701302309    7.81308025828686   -1.60385537202358
C         3.68441402635983    8.11684445012827   -2.12855243111690
C         4.82059437019262    7.51716791837439   -1.65786579423907
C         4.73331392129270    6.57353603997812   -0.64154957318842
C         3.52545055317867    6.26957954020940   -0.04671883556005
C         2.34428540445393    6.92293063355979   -0.47239040610562
C         3.55864884902671    5.20190020750446    1.01212684413487
C         4.03769294863819    5.77015025040534    2.35458534109090
C         3.90275100253963    4.77480174912580    3.50481983980691
C         4.79382711678079    3.54387875865055    3.35340213411297
C         4.71173412908745    2.63968525187660    4.57746096195965
C         1.07863462405615    6.78432228000156    0.18183483410350
C        -0.92070683816158    6.34611042056853    1.74699788172740
C        -1.20624700883163    7.11609373548690    0.45654982820447
C        -2.38926805833238    6.54692292464233   -0.32608619774671
C        -3.94663545971286    8.52396585875737   -0.15017740114642
C        -3.35862153200444    8.36461581187600   -1.56463479255364
C        -3.19511913333585    6.16132269737375   -2.52903086796921
C        -2.55284353886923    9.62792730311562   -1.95417939727722
C        -2.57702924549791    9.96709130264896   -3.47238309784711
C        -3.99256526915432   10.37318586217998   -3.88998798441289
C        -1.63200991126341   11.15895152477515   -3.72979072177931
C        -2.05443632586535    8.84249443664515   -4.31718192825572
C        -1.53715625260321    7.21327144065306   -6.19528686366807
C        -0.57306082153733    7.22403458905138   -4.99804750069382
C         0.86782039157810    7.51828441137050   -5.41182127511373
C        -0.55424970049081    5.80726348166078   -4.27829226634235
H        -0.68235379907936   10.17449832350047   -1.73847932955520
H         3.71943370605018    8.81839114628844   -2.94883970884826
H         5.78070757070532    7.75294147380352   -2.09425650060997
H         5.62426920476473    6.05791836329967   -0.31554064322735
H         2.58471652986402    4.73347203891767    1.13829157540174
H         4.25752705936212    4.42920708616108    0.68617810841871
H         5.07958005496576    6.08281339059555    2.25798533068434
H         3.44795995628200    6.65847168520308    2.59083822981554
H         4.16378165409099    5.28371313280789    4.43607335411054
H         2.85944552705730    4.46168213609511    3.58306567989022
H         4.49208153857322    2.97631317771187    2.47192335918718
H         5.82849852005599    3.86357478182080    3.20810570634912
H         3.68912821953182    2.30247781979134    4.73262538786802
H         5.34624465289682    1.76508051711742    4.45272782905923
H         5.03386385695393    3.17284822173351    5.46955681431115
H        -1.23336121345493    5.30197667417240    1.68155038467172
H        -1.37046735085853    6.80221859411465    2.62486480182220
H        -1.39637902373468    8.17281615483779    0.68897233025182
H        -2.25943776880176    5.46792707244030   -0.42169521324776
H        -4.96778607176552    8.89668708470970   -0.17389446507746
H        -3.33953414087159    9.18285732185261    0.47143285336471
H        -4.19236051971513    8.26556396022118   -2.26409573168034
H        -4.16587442316429    5.83746428326561   -2.13581100129319
H        -3.34280581637475    6.60432101592855   -3.51153376310648
H        -2.54808211090387    5.29613196019308   -2.64587987971027
H        -3.03020275683154   10.48744929067814   -1.44994334321480
H        -4.35197741441002   11.18329681115601   -3.25978985552004
H        -3.98899360840040   10.71516320889183   -4.92175335117924
H        -4.69194848266633    9.54473111515309   -3.82316414475732
H        -0.58979898738965   10.87169528331924   -3.60247686203823
H        -1.75491069521834   11.50242186816853   -4.75417968103018
H        -1.87130590917095   11.98464336369543   -3.06210626951777
H        -2.01126958775376    6.23335137168249   -6.29109991079970
H        -1.04271255079180    7.46542149071879   -7.13270504455073
H         1.23390512413155    6.71809082043653   -6.05063299913392
H         0.92660643227111    8.46657593703422   -5.94636631053612
H         1.48986505106394    7.57633708202404   -4.52136015244197

