36
CSD_code = SUVDES | q = 0 | S = 0 | Stoichiometry = C17H12MoN2O4 | MND = 6
Mo       -0.18333357774517   10.40676436593956    9.17385499665662
N        -1.05926949756227   12.29327904134931    9.26862317253154
N         0.68973298410526   11.29273788172712   10.86844787807479
C         0.74036312001738    8.69551634681507    9.27744888250390
O         1.29373768528861    7.69552099665953    9.36447595752482
C        -1.63290295755548    9.63504955090600   10.25231583375957
O        -2.47189885797610    9.12813301948826   10.83844496315028
C        -1.09978885195087    9.79794038413888    7.56716945690901
O        -1.64936924325760    9.45816662492540    6.62048802042362
C         1.27546919481263   11.08147392322036    8.04415231593676
O         2.12210013319488   11.41717648995428    7.35482964927934
C        -2.07014363450212   12.70668432721895    8.33953962134064
H        -2.82358726583383   11.91860071438842    8.27299766759010
H        -1.62074440928839   12.81025149893176    7.34786694482975
H        -2.55118437674719   13.65100405683025    8.61786522892881
C        -0.68511694139981   13.09141722704646   10.21145950847374
C         0.31245407273861   12.56337764656621   11.12345060313514
C         0.85607516041569   13.30384485087540   12.17830710891174
H         0.53894736164556   14.32368112537141   12.33368474749178
C         1.79436367265249   12.71653109501336   13.00094369124772
H         2.22961349726311   13.26486146282916   13.82191249626563
C         2.16601514453323   11.40038219867532   12.74313695801957
H         2.89373049004083   10.89909362849421   13.36083674953156
C         1.59349053712475   10.73921330032771   11.67321977940890
H         1.87083707130246    9.71765425753927   11.44402715139430
C        -1.19238893029363   14.47086611274452   10.41907894043000
C        -1.98870801231736   14.76575111017756   11.52216951368324
H        -2.25264656968941   13.97796305776694   12.21349926578135
C        -2.44841026895673   16.05491796132180   11.72248131824316
H        -3.07032977207324   16.27504446350056   12.57724177337831
C        -2.11164262071479   17.06000273392474   10.83082451125327
H        -2.46938522508327   18.06589768515721   10.99066666437094
C        -1.31564669182175   16.77345778085550    9.73422725553781
H        -1.04995918043315   17.55517305702982    9.03853480995975
C        -0.85875569406792   15.48467767604718    9.52519372604937
H        -0.23311754584823   15.25909234625122    8.67328283799920

