71
CSD_code = SUVREH | q = 0 | S = 0 | Stoichiometry = C23H24F18MoO5 | MND = 6
Mo        3.37247830120200    2.85652442538561    2.97369315401378
O         2.67463659901819    2.67239772377264    1.19898458048842
O         2.76920954168002    1.22560769179035    3.75142397836014
O         3.52573190945201    3.79910794001415    4.67709379417193
O         1.07786684285266    3.42200384895405    3.31910930652558
O         3.25050207517387    5.07745717826572    2.39720971257136
F         1.26917802622149    1.01851403202596   -0.53165624970518
F         1.80208238005237    2.22857367065449   -2.21475803725608
F         0.64861393557468    3.07008215066931   -0.60708231323547
F         3.46039407261903    4.23484377776258   -1.90154999192504
F         4.47486130737439    4.48771994740457   -0.03397501394290
F         2.40494083181036    5.00389322520718   -0.20090295256268
F         0.92379060027569    0.27556454915900    2.25052647242216
F         2.79535981645417   -0.21624921212940    1.31402835018319
F         1.64236929407922   -1.75398333779057    2.26121255367460
F         0.78951767507415   -0.20186944307008    4.98874669066814
F         2.65064102888400   -0.44003837860188    6.03076968794080
F         1.89165241972576   -2.04211201324122    4.83710616386746
F         4.70963914141861    1.50432093543552    5.84784674632537
F         2.82613806901890    2.19046956753980    6.63036234961574
F         4.63546389482425    2.47592536508348    7.76066352337776
F         2.52298993808632    4.81620836075900    7.07324742962825
F         4.51528904983224    5.20407599271350    7.78170548205419
F         3.80339791989373    6.14241157827038    5.98690447093480
C         5.15857422483518    2.57953463368400    2.63092660252014
C         6.51952181546491    2.35062184717593    2.41693855156537
C         7.23148435219353    1.42576615355573    3.20922984133125
H         6.69965731182572    0.90465015457744    3.99106638906544
C         8.57355637645758    1.19778622002151    2.99809433653522
H         9.09729901172146    0.48305854076170    3.61629859039489
C         9.25750998970718    1.88236109931001    2.00341571481246
H        10.30923277313312    1.70071227556492    1.84253735554300
C         8.57946810295248    2.80488260036738    1.21979356750371
H         9.10713563670503    3.34361841420232    0.44589794048617
C         7.23575634639647    3.03860656720137    1.41649989814062
H         6.70946172185933    3.75586425863319    0.80469267247809
C         2.96110246466143    2.65329693209454   -0.13630610328538
C         4.12322705472340    1.74119877782433   -0.55333537754055
H         4.91430630986685    1.86051015520531    0.18585040719884
H         4.48388016452799    2.01305860716798   -1.54258108106163
H         3.79995414419772    0.70549880862077   -0.55918550382537
C         1.66311523151186    2.23874452911829   -0.88259220058652
C         3.31534315906373    4.09680988066431   -0.58039166595340
C         2.79486167842967   -0.13395242744921    3.67177497993338
C         4.18948739771439   -0.76939717512305    3.61183250418011
H         4.76683798800592   -0.24415701998672    2.85199169575552
H         4.11114015045017   -1.82624865176146    3.36613550805243
H         4.67926301249013   -0.65081118084713    4.57455620028752
C         2.01673120010650   -0.47635823792546    2.37485171247058
C         2.02047500497109   -0.71003667995243    4.88679602668754
C         4.31776480510072    3.84052242926930    5.78659014704141
C         5.81433387145904    4.06802467430992    5.53417129021441
H         6.13996897651898    3.36468360344772    4.77056288753092
H         6.37665108771393    3.91370423170047    6.45225351283066
H         5.97857173168078    5.08110635003885    5.17426995084747
C         4.11932721610367    2.49699249622286    6.52606493340134
C         3.78897874972516    4.99019195435034    6.68433479642418
C         0.89063291506491    4.64055495411302    2.64289078565064
H        -0.05778584588361    5.10625961702500    2.94126312109933
H         0.84444344541823    4.40138572357582    1.57494649628758
C         2.03384605833019    5.62869815380042    2.88556315795010
H         1.82341001835428    6.56468461482795    2.34697001758860
H         2.13743419952808    5.84416668253570    3.96142493660866
C         0.49363134271154    3.35773218937269    4.60470276372926
H         0.90350105086454    4.10908363115088    5.28589428892835
H         0.71033520521334    2.36616756121822    4.99657584303471
H        -0.59175711206743    3.48749340231498    4.53067600231299
C         4.32465372927201    5.99400753475927    2.53348052140096
H         4.14701307861675    6.86683070798547    1.89287846461993
H         5.22757221116762    5.47439788046083    2.21556359249599
H         4.42644597054049    6.32224294878266    3.57412403911588

