39
CSD_code = SUVRUW | q = 0 | S = 0 | Stoichiometry = C17H14N3O3SV | MND = 6
V         5.50331379429573    6.98382813548386    8.03768278150380
S         8.10688518986822    3.33351702976993    7.38245614848743
O         4.11535516021014    7.63749325484641    7.89738696961931
O         5.44379672259757    6.22397798990754    9.55684718643449
O         6.51269020402654    8.36227494177491    8.23903540572008
N         4.70078676419929    5.22596486355066    7.30999597322935
N         5.67559755841444    7.25999299455809    6.03698322066514
N         7.20837243793767    5.92697706217482    7.68279823654656
C         5.48626504917541    5.04468075794027   10.06719103733040
C         5.88483826292182    4.82414433042838   11.39856424912900
C         5.92563181854646    3.55143559953514   11.91913491941363
C         5.55656109013892    2.45170713114896   11.14628638826088
C         5.14670716516021    2.63869907715335    9.84710166337080
C         5.10420138085465    3.91870184685346    9.27878947503528
C         4.69074968195286    4.10348228318061    7.92071731633174
C         4.27590144369755    5.32843078797528    5.94425658905877
C         5.35613899274342    6.13247339723477    5.20789735996121
C         5.87123980139367    8.41333146854055    5.52191512450952
C         6.23863255239479    9.58692138498069    6.25265385452211
C         6.34340477443449   10.82744850371625    5.60446302527125
C         6.73579982350524   11.95509806456401    6.28446282440228
C         7.05663218767699   11.86818636109422    7.64001442543793
C         6.98731884294592   10.66703589891434    8.30349346943549
C         6.56657109322661    9.49591948422349    7.63975114719014
C         7.60724089194138    4.82537500896564    7.57408703475442
H         6.17527244240210    5.68227667159208   11.98806359712751
H         6.25113600549444    3.40360064809162   12.93824492161396
H         5.59748243776568    1.45914627732423   11.56650307254720
H         4.86806039808816    1.79138403416806    9.23740543926525
H         4.34290698091434    3.20537429373883    7.39626195055471
H         3.33768322124751    5.89929949453256    5.92978326501786
H         4.12702559437550    4.34622802292856    5.47328423793112
H         5.01543402633517    6.43407592757817    4.20696628593654
H         6.25367122060251    5.50624351972199    5.11190206975553
H         5.78155805129462    8.53476036314536    4.43495633324971
H         6.09766063890090   10.88676065060281    4.55359680556028
H         6.79969348521069   12.90411530618832    5.77560372881227
H         7.36677308443398   12.75505400952635    8.17259553652597
H         7.23530972867271   10.58998312234581    9.35266693047975

