71
CSD_code = SUVRAD | q = 0 | S = 0 | Stoichiometry = C23H24F18O5W | MND = 6
W         3.36687978853276    2.82259982634714    2.96172903504689
O         2.59974924450077    2.66316814277814    1.12682497996197
O         2.76807942918471    1.21570159355605    4.02032032973844
O         3.52481333433075    3.94728709112175    4.68791794258217
O         1.20627372116050    3.33218442142264    3.34585514863777
O         3.21383308323342    5.07051255383929    2.36241201447771
F         1.33108359094846    0.95662577166911   -0.65572244785899
F         1.84290545162338    2.21920192819159   -2.31184442665641
F         0.62770933491101    2.98394481535741   -0.71093193119540
F         3.52737664053350    4.28127902485748   -1.89927934104547
F         4.40986399885739    4.47409317196305    0.04941917884804
F         2.34857932441335    4.97632430751583   -0.24585399446106
F         1.15142468023415    0.60822426767311    2.22161191185276
F         3.08639596317861    0.04225212448473    1.48870663810711
F         1.67611197128006   -1.48372921170396    2.06109492271028
F         0.57560956941124   -0.25488600976326    4.80859660794219
F         2.26481492960425   -0.58051114757369    6.09317519649957
F         1.67853153896885   -2.09756447726825    4.69757921076401
F         4.82335362756562    1.62562948983759    5.65645880303935
F         2.97477717328570    2.19783902646449    6.59646208269514
F         4.84131218646048    2.47179719315743    7.63334612747795
F         2.59365967906492    4.79437602822701    7.15999733502017
F         4.59772574301506    5.21211276664591    7.82037112902333
F         3.79337725134057    6.21336615098689    6.09834690852315
C         5.18167409700711    2.48890279551246    2.60442221926562
C         6.55034618370190    2.27251895407216    2.39355102454536
C         7.28923717775148    1.38252239723568    3.20414989700627
H         6.77568875793210    0.87413933963202    4.00656062925426
C         8.63367830650061    1.17549553050263    2.98988144672461
H         9.17547380554511    0.48760130662682    3.62340536229081
C         9.29879861656563    1.84462135617724    1.97181377862365
H        10.35259995133374    1.67773688233863    1.80774404354664
C         8.59730276017946    2.73350421049066    1.16941799280728
H         9.10997998049137    3.26176074936812    0.37790198641642
C         7.25170163477530    2.94740629988966    1.37013498140917
H         6.70780720309118    3.64131815859657    0.74586371571874
C         2.94211654478760    2.64083041684632   -0.20237671444681
C         4.13566597576516    1.75117455423568   -0.57778469802187
H         3.81756205470457    0.72055433437476   -0.69705945101755
H         4.84708038485937    1.80728603250257    0.24889427539312
H         4.59449723931266    2.09513077782983   -1.50140100741675
C         1.67950601101573    2.19998351638104   -0.98321783896459
C         3.29538757471007    4.09463863314145   -0.59824265314033
C         2.75262466414368   -0.13291879793904    3.80988455745363
C         4.12275345676138   -0.82158234205356    3.85794061287080
H         4.47795831495199   -0.84405414745889    4.88452657003535
H         4.81015187774542   -0.22172797457042    3.25945811639881
H         4.05633370714991   -1.83426415169334    3.46741639934322
C         2.13938889324363   -0.28293232709773    2.39510415498758
C         1.80746091606146   -0.77346809889997    4.85607504185713
C         4.36701190742222    3.94532618255680    5.76617145915392
C         5.84280692100742    4.22872129422389    5.44837562984169
H         5.98059448129714    5.28224499792862    5.21884816239953
H         6.10732313413653    3.63243260126946    4.57357555328507
H         6.47214805478471    3.95945103033974    6.29291796276019
C         4.24929465065369    2.55692499061854    6.43648972391821
C         3.83952156304289    5.02962773471917    6.73869618950593
C         0.90035688194771    4.50932958117031    2.63217545193268
H        -0.08063014211278    4.90136040171560    2.92797421315984
H         0.86496205707528    4.23447554357233    1.57170290916927
C         1.97054044025786    5.58374673858779    2.83867180266461
H         1.70912821376720    6.48615571610685    2.26775553857559
H         2.06708238662222    5.83930706322172    3.90591059525363
C         0.62214996116285    3.26561408068777    4.63530281267835
H        -0.47015041616224    3.26248573696354    4.55421990986260
H         0.93911980286436    4.09408434227785    5.27553413706596
H         0.95207057801860    2.32839753484672    5.07998322890381
C         4.27484715000181    6.00031762021487    2.55849152477751
H         4.33839292011342    6.29614000179317    3.61120263772189
H         4.10503047664251    6.88803041729098    1.93794784097537
H         5.19188163173339    5.49531913406324    2.25289491172237

