43
CSD_code = SUVROS | q = 0 | S = 0 | Stoichiometry = C14H22Cl2FeN2OS | MND = 4
Fe        0.72227942150790   10.44075807012045   14.94746156824616
Cl        1.09487943515908    9.63349471762084   13.15014082862964
Cl        0.68685717172127   11.39094387724971   16.71784326370427
S         2.02630963644893   14.41577602763901   12.14506683409551
O        -1.29072813087311    7.03146004644565   16.14389872809708
N        -1.79082155392886    9.65283535936267   15.11968766971848
N        -0.81097091630234   12.17166490553285   13.94596344141989
C        -1.98577982555730    8.45407732937609   14.30099502758968
H        -1.74558789391112    8.68158745446400   13.26273992243421
H        -3.03131045647698    8.11032831641350   14.36632822398667
C        -1.05976833190004    7.34121283885511   14.79200687736958
H        -1.22949142629802    6.42312559196290   14.22824099661616
H        -0.01310963966170    7.66785922834110   14.66036462917604
C        -1.12518232175057    8.17657880040551   16.93912242615151
H        -0.08546864133378    8.54974805843854   16.85132195463232
H        -1.31906657760761    7.87460202700151   17.96901537185105
C        -2.07558136579063    9.29322596670041   16.51074539431127
H        -3.11521578274503    8.94637369645266   16.62174775100854
H        -1.91237626203953   10.16456681124771   17.14630245009987
C        -2.65512622035478   10.74661408683539   14.67443797203402
H        -2.78588218409759   11.43156326340422   15.51665326358710
H        -3.64781431663318   10.37181204235627   14.38161960322470
C        -2.04766680556163   11.53216259820063   13.51281249321388
H        -1.80421836859289   10.86336961022040   12.68470345881729
H        -2.78679479630910   12.26780995502180   13.15755384427004
C        -0.16247451860410   12.96682308048476   12.91015432379977
H        -0.77076517056772   13.83221548065864   12.60500570448288
H        -0.00776713823311   12.32995409394088   12.03555113619715
C         1.18573657696743   13.43825841293306   13.43428558640970
H         1.80110603691130   12.56453881329391   13.68445618325782
H         1.05771706217232   14.07037575849452   14.31422704063148
C         3.50424785148399   14.97434475400147   12.94412901564356
C         4.28500461855384   15.87413692026779   12.22252594937234
H         3.95759848808339   16.18075947385372   11.24063601464380
C         5.45794840262535   16.36199567926620   12.76135414516546
H         6.05633141581118   17.05981013446220   12.19476183814291
C         5.86449652495344   15.96022686436392   14.02454072325762
H         6.78060873163237   16.34283094992602   14.44827515981922
C         5.08910459514195   15.06421249436860   14.73775551766871
H         5.39817084794951   14.74245831764932   15.72128108342032
C         3.91113553590815   14.56587382824613   14.20602727491013
H         3.33141880296253   13.86419537952743   14.78419505888562
H        -1.02278251085843   12.78173888460121   14.73496425000518

