69
CSD_code = SUVTUA | q = 0 | S = 0 | Stoichiometry = C34H29AuNO2PS | MND = 2
Au        3.15078876108520    7.31295764640860   10.08574851235644
S         6.25023311050711    3.09368903184153    8.31934835546237
P         2.50021449861203    9.44335282433636    9.72036148993535
N         6.00440141069713    2.82802415011362    9.95121751524126
O         7.59537063281223    2.72664980308921    7.98583187927999
O         5.18737556300395    2.44036317834382    7.61279029381644
C         7.00999868932651    3.18882327576451   10.85664350220946
C         3.73125247344390    5.46389263888227   10.30415569999543
C         4.60497877598742    2.95044108096993   10.34722636343971
H         4.04451598685155    2.34576303626190    9.62796280691533
H         4.49897053868105    2.50936473169617   11.34516666081172
C         2.44682374390845    9.91242040877861    7.96637540613694
C         3.47228812213938   10.75225047158951   10.52273328603293
C         6.77869531754443    4.08983718691177   11.89528004673947
H         5.81264189106710    4.56078629633174   11.99369870313929
C         6.10409639466385    4.86776842328150    8.09678988641938
C         2.91112587286539   11.11884516739439    7.45669302073264
H         3.32080730493338   11.86882411673215    8.11897857232261
C         0.82364479408781    9.84148041540711   10.29943484717207
C         4.10548480064892    4.31837108418966   10.32535260535361
C         2.97082697721960   12.03723702361025   10.71428631037666
H         1.96826954653879   12.27828781567826   10.38653271022885
C         0.56231532010544    9.54919141774022   11.63651876571702
H         1.34943882523056    9.12393549920317   12.24751170140267
C         8.26751373421686    2.59839689061891   10.73636081048778
H         8.44341828746924    1.90263675971159    9.93349457813571
C         3.75621340331064   12.99453469200803   11.32857066814728
H         3.36920045254835   13.99222394093782   11.47565001475074
C         9.27497563787789    2.92468607711761   11.62398423340361
H        10.24633334946620    2.46441866493867   11.51706211111138
C         1.94259432893632    8.94129550253745    7.10388005818420
H         1.60226498430484    7.99742407084837    7.51295518001011
C         9.04327859918357    3.82154715199855   12.65468188633296
H         9.83154688887437    4.06713590765498   13.35100797276305
C         4.75099265737608   10.43211591009179   10.96688861136101
H         5.12176692539513    9.42239412404837   10.83625473131482
C         5.03571560823211   12.67628517309441   11.75806237055236
H         5.64368077938863   13.42818031276517   12.23858292721819
C         2.85485815781017   11.35204892676067    6.09354161483196
H         3.21616106813588   12.28939515298350    5.69671617926814
C        -0.18023323711608   10.36485936915135    9.49401573547204
H         0.01469190560728   10.58154678145328    8.45253333067132
C         2.34257393098326   10.38952786171432    5.23895577636388
H         2.30514790683115   10.57744602559342    4.17639918614291
C         7.03967266285029    5.69014883518928    8.69151720348860
H         7.83409051263229    5.25525492036719    9.27750022900858
C        -0.68714660207791    9.79821475479065   12.16882200211161
H        -0.88705981793232    9.57388011103792   13.20599118055514
C         5.08427766321773    5.38675634974244    7.32588173695285
H         4.37403437497283    4.70826541779933    6.88151995940391
C        -1.43164078389953   10.60816907706387   10.03346513941277
H        -2.21191998934004   11.01744667405709    9.40863778304858
C         5.53173414281162   11.39527804473639   11.58047103979887
H         6.52398825141251   11.14469932954278   11.92467377879323
C        -1.68541037662528   10.32916579999423   11.36593564839921
H        -2.66419781871158   10.52097140127070   11.77936439734784
C         7.79140701020326    4.39648777346710   12.78629261782264
H         7.59788681930509    5.09709325500880   13.58614856219907
C         1.88489810741740    9.18241916943885    5.74469192834187
H         1.49155681642199    8.42882652413419    5.07857112732817
C         6.94549416029934    7.05899029376800    8.51363115163439
H         7.67298780533251    7.71002820642486    8.97692056868877
C         5.93204506884468    7.60574845936162    7.73424260389267
C         5.00169748542114    6.75582242815630    7.14472293551291
H         4.21325961353605    7.17383330731641    6.53469519731655
C         5.83480621375498    9.08927165666836    7.54599544958977
H         6.81544553015527    9.55497288958784    7.60882848889385
H         5.20649977907357    9.52419956675530    8.32646912003768
H         5.38513865016055    9.33199973382841    6.58567323256436

