48
CSD_code = SUVVOU | q = 0 | S = 0 | Stoichiometry = C14H27CrO3P3 | MND = 6
Cr        4.57332101198402   11.35053062735931   -0.03404609837438
P         2.66566014996175   11.95714465230930   -1.15863588101824
P         3.25651545082349    9.67483383570641    0.82086600268090
P         4.87221913564040    9.90279012496783   -1.79069637027826
O         7.03259820909593   10.58036468409282    1.48046664117739
O         6.33403801884452   13.49973989915090   -1.13653999078943
O         4.19816070444474   13.28184879524279    2.21627120588371
C         1.04825786233831    8.31756417700080   -2.47970704682511
C         2.08071928091470    9.20567387516664   -1.76337490395280
C         1.81456521745617   10.65910558013701   -2.18553842612863
C         1.88376900504556    9.01806979910852   -0.25088867625545
C         3.47744354696755    8.74259436931274   -2.20617215012015
C         2.75997669064114   13.31788599667488   -2.38946794937809
C         1.23271256192101   12.61833410758086   -0.20793679603932
C         2.32104767123260    9.98922304530539    2.37063481725303
C         4.04296936293755    8.09639805968069    1.35401458885108
C         6.26468985403931    8.70612325747946   -1.72347501841716
C         5.24606524895737   10.58319411104150   -3.46132434982076
C         6.06902842148132   10.82793909581896    0.88021901375509
C         5.62784394543784   12.65898373969272   -0.75638704618255
C         4.29215559200794   12.51733697285608    1.34634699911094
H         0.04191338576074    8.53544823191448   -2.12624750131754
H         1.25284926836887    7.26430375929650   -2.29561952360927
H         1.07513074082554    8.48650175631808   -3.55479655826872
H         2.14642173507298   10.78844656535702   -3.22129304433445
H         0.73646689951317   10.85566835595110   -2.15417749678512
H         0.96072575055891    9.52673247217725    0.04701014587996
H         1.76238576374611    7.95119986693976   -0.02954040352725
H         3.48107620898562    8.58341942687372   -3.29084129288314
H         3.69486044025044    7.78147052079832   -1.72810644400142
H         1.82629003630999   13.42876452963820   -2.94473549675732
H         2.96934254496335   14.23139764081919   -1.83133020149761
H         3.58765299859761   13.14638321666360   -3.07555503318140
H         0.45592557640248   12.99379385085854   -0.87690753600849
H         1.60646172660304   13.43310128285892    0.41347392993073
H         0.81559768611479   11.85028697155372    0.44096555200367
H         1.77300018536881   10.92673679280989    2.29407863164550
H         1.63767223624476    9.17063676416354    2.60582126916188
H         3.05942230509157   10.09515952153509    3.16657384719232
H         3.32522488496593    7.45167240605958    1.86502481883851
H         4.85408135134300    8.35466479605225    2.03605550076077
H         4.46305652051052    7.56931006612336    0.49918777438385
H         6.25904596854020    8.17750591286293   -0.77187488903282
H         7.18382478141277    9.29086048751590   -1.77812291474920
H         6.22876339422473    7.99432246949841   -2.55068544516733
H         5.49233703564320    9.78606635580601   -4.16560314430039
H         4.40171426960619   11.15677196522888   -3.83956359539632
H         6.10009936280173   11.25289520864001   -3.35241951411112

