48
CSD_code = SUVWAH | q = 0 | S = 0 | Stoichiometry = C14H27O3P3W | MND = 6
W         1.39496867431922   11.65068981512712    3.13368598044880
P         2.58462231741878    9.87690652712931    2.02425012145050
P         1.17501039806517   10.03351847211251    4.90181135346917
P         3.52971299894799   12.08177109623283    4.15522541192967
O        -0.01970870247584   13.90059428799336    4.75856146750835
O         1.89408775582742   13.65929895104321    0.80546033094179
O        -1.33735447580445   10.86892204844361    1.85811900270528
C         4.96635367684045    8.24918582753040    5.06812412955020
C         3.92841373411163    9.23772668242428    4.50554078149184
C         3.49186011039527    8.70011141718431    3.13279768725423
C         2.75784505109671    9.27771960808845    5.50170304756512
C         4.62415051070963   10.60377152674569    4.38784398510194
C         3.88726502896306   10.31514831163724    0.80932874487528
C         1.65251675344699    8.69182368019076    0.98507589702500
C         0.14457763670670    8.54382735630257    4.61118726937282
C         0.43576918987210   10.55027677355201    6.49542357181797
C         3.56924910904299   12.83376462823627    5.82801075463175
C         4.69977278248928   13.22541236600205    3.33286340471633
C         0.49384842048266   13.07331650208859    4.14617987284180
C         1.69550890950950   12.92421976047360    1.66762082358635
C        -0.33122980664792   11.17249252148641    2.32574705659426
H         5.23490177385089    8.51277004608717    6.08974351807796
H         5.87284519373560    8.25796912160983    4.46521636983702
H         4.57009696873058    7.23514824788186    5.07155736126478
H         4.37525817396129    8.34822223440472    2.58681239579966
H         2.83767608321489    7.83676773551519    3.29272379601546
H         2.53093314461223    8.25689149089891    5.83148186791592
H         3.07410273080659    9.84607576570666    6.38254350078098
H         5.22792744428829   10.77873010014608    5.28626604311070
H         5.30745252430627   10.57009951005528    3.53294017551915
H         4.68345569662859   10.88005065868080    1.28993371181580
H         3.42416118313224   10.94860073721308    0.05214604423558
H         4.30240907836051    9.42313352194035    0.33678653173173
H         2.28444661183007    7.86850437806725    0.64703444643013
H         1.27733016224777    9.24616398323291    0.12442139373845
H         0.79680156733357    8.30491810893552    1.53556776024175
H         0.55108402319757    7.95114658395190    3.79417556277899
H        -0.85002437461920    8.88792801276448    4.32579733433629
H         0.07573616048741    7.93063547048940    5.51149568953942
H        -0.61381743502522   10.77505460667178    6.30388797366333
H         0.51343361084513    9.76455851619412    7.24915275698553
H         0.91528128553222   11.46000170061995    6.85242208662862
H         3.07673566639665   12.18566762516201    6.55012786689637
H         3.01650428897978   13.77220412077117    5.77441790922457
H         4.59398731527162   13.03012928776335    6.14864040816896
H         5.67199552267369   13.23277939798048    3.82916863747033
H         4.25745770658605   14.22114110573669    3.37373046303662
H         4.81628781931724   12.95120977149355    2.28584769987740

