65
CSD_code = SUWCUJ | q = 0 | S = 0 | Stoichiometry = C32H26Cl2N2OPRe | MND = 6
Re       -0.40037203157007    3.97769632505818    9.73195090817639
Cl       -1.26701226225123    1.95522987185489   10.33747514615989
Cl       -1.43097691730464    4.94635902196203   11.51972208567792
P        -0.12822430162163    3.46319873668955    7.37804032899950
O        -1.79338921439225    5.04441712653612    8.57086745586749
N         0.75047427692300    5.90498481970603    9.49471410068368
N         1.27670403579271    3.59508290153773   10.25097418171736
C        -2.05840843881727    6.30810887877486    8.53265937281346
C        -3.34507497492726    6.70902810545810    8.11713823999803
H        -4.05863250366552    5.92837814945553    7.89624298438323
C        -3.67956126425171    8.03361453310997    7.99169172268239
H        -4.67430673760909    8.30450850926891    7.66869875505281
C        -2.74735921106351    9.03078654585610    8.27929460197796
H        -3.01825070605780   10.07069487829143    8.18251492995800
C        -1.48858494034642    8.67437138404360    8.69073316784463
H        -0.76031016050619    9.43974042897021    8.92158508208611
C        -1.10363623434980    7.32910400710517    8.83186955162882
C         0.22962057040700    7.06495928977535    9.25861446697456
H         0.84864598977351    7.95528907162231    9.38823584100190
C         2.08005330312725    5.71450257567145    9.83179568903972
C         2.36297560971255    4.37065217497521   10.24416443493247
C         3.66786126047357    3.98437973492352   10.58793921148268
C         4.67056020819846    4.93832815516282   10.52043427975981
H         5.68129574272889    4.66108207899852   10.78087342782554
C         4.40067715020926    6.23967838855739   10.12089698162730
H         5.20311705299521    6.96061793340522   10.07754350407677
C         3.11839204424870    6.63200945676917    9.77268265011958
H         2.93779142953682    7.64713078306217    9.45173527762817
C         3.92527020003178    2.56434953670946   10.97257118754352
H         3.07621834101202    2.17328708733906   11.52834872080411
H         4.82995125558194    2.47813715558239   11.56836572651686
H         4.03897674936993    1.95522110145343   10.07511987437435
C         0.47986922254433    4.94875242835255    6.53621376064701
C        -0.37981221481600    5.86557259583928    5.94059744565131
H        -1.43239174087887    5.63751785705627    5.84925443365978
C         0.11114367629423    7.07278243398500    5.47538953544975
H        -0.56241701988935    7.78457785187733    5.02129931235258
C         1.45685823856299    7.37343403576351    5.60411708282232
H         1.83453530508564    8.31949543237869    5.24541996870133
C         2.31852160442718    6.46231623796105    6.19608302455546
H         3.36788212192362    6.69597669028602    6.30083235721011
C         1.83310253058257    5.25774459003442    6.66689290073092
H         2.49343543506546    4.54938831825793    7.14980475459701
C        -1.59641071150629    2.92673100323543    6.45459997601239
C        -1.62717510996251    3.02960766511365    5.06633928269727
H        -0.78405314839982    3.44731091879786    4.53360885085208
C        -2.74281938889197    2.60341148064314    4.37025865526407
H        -2.76822309388479    2.68877377644674    3.29349031184761
C        -3.82648925373828    2.06971087177363    5.05052996702417
H        -4.69763951567397    1.74292093104820    4.50194149846841
C        -3.79032862198861    1.95360615425392    6.43004441233347
H        -4.63121976042227    1.53197326852677    6.96037961860772
C        -2.67704733062547    2.37740098077267    7.13462046085230
H        -2.64217030022374    2.28118066103099    8.21118205448868
C         1.08808031335762    2.17647258988630    6.94620157198826
C         1.73193931301131    2.15069312392735    5.71356066144090
H         1.55102893075645    2.93289134762288    4.98968347413371
C         2.61874765836103    1.13085005728858    5.42091361354885
H         3.12077749818709    1.11464706603394    4.46445443574059
C         2.86436244936119    0.13310721711219    6.35073821105430
H         3.55853467824647   -0.66057601813123    6.11691163542576
C         2.22256993058373    0.15601893268641    7.57818503354377
H         2.41348404628248   -0.62072341927084    8.30339278884016
C         1.33535861258328    1.17436544477359    7.87848417035152
H         0.83058032429918    1.20563872702960    8.83528084973757

