263
CSD_code = SUWHAU | q = 0 | S = 0 | Stoichiometry = C136H114Cl2O8P2Pd | MND = 4
Pd        3.30964795146738    0.18398633832764   14.91441498113016
P         4.38785352219640   -0.81326928656482   13.19793295068919
Cl        5.28017737050131    0.01831100093644   16.07603580995726
O         5.37501732129991    3.41306183617931    9.17310897085344
O         8.76779328631419    2.98657122701430    9.95493396060305
O         9.84638572282218    5.09935272302246   12.56792160933992
O         6.52908839153240    4.76306345371074   11.86373294312309
C         4.94995526195710    0.52523895941928   12.11648662495473
C         4.37270545283693    1.77850249346887   12.28569856496046
H         3.73418644808533    1.97512038802382   13.15718993502951
C         4.54605504894710    2.77002523366360   11.33417782461883
C         5.33770552725625    2.50240441277244   10.21146764033678
C         6.04504203063779    1.29988238768491   10.11057989649472
C         5.82521905871742    0.31433207104444   11.05882369691646
H         6.34350832381032   -0.63094312841309   10.97129940067782
C         7.05629801683884    1.03630693059421    9.01650931270619
H         6.72491044150482    0.20754028769756    8.38447047342680
H         7.18273269957954    1.92888397267370    8.40601147712786
C         9.85358308622945   -0.96289933979861   10.60545263744163
H        10.15775444762730   -1.99307952798652   10.71496464782403
C         8.72963641298106   -0.64243892693050    9.86711733178418
H         8.14454735799601   -1.42837473085604    9.41022932929987
C         8.35455114539330    0.67969495289881    9.69109703281032
C         9.13234866207734    1.70171264674750   10.25327332476541
C        10.19418400166051    1.37855988126450   11.10963038386803
C        10.54916331069779    0.04219418339754   11.24953927234307
H        11.38349017509709   -0.21293450188717   11.88886934920908
C        10.81955032347995    2.39713034065446   12.03412722641877
H        11.13581404475343    3.29906446314467   11.51665381695977
H        11.69707454222473    1.95099729796980   12.51192581149473
C         8.21978016266130    1.93916779390097   14.74184472977746
H         7.79104612986573    1.13273982212795   15.31746965522632
C         9.23631227413876    1.70425928173568   13.83701043377889
H         9.60998753848980    0.70142441460906   13.69112500302052
C         9.78335471753311    2.73576015810318   13.08540018723988
C         9.31239374007553    4.03598779639923   13.28004148641119
C         8.27055438918911    4.28076167924989   14.17622501229089
C         7.72817210660503    3.22078217201123   14.88776878453077
H         6.90787036523760    3.39894326675717   15.56464343142376
C         7.68381459561087    5.66059244759690   14.35400687836120
H         7.86982574476591    6.01368191056065   15.37303391867135
H         8.16794121539966    6.35267681589198   13.66335174892538
C         3.94420601307410    5.68147827805171   14.97207571056877
H         3.26327325854865    5.96154848170423   15.76289168799185
C         5.29889279026141    5.91860073404497   15.12040391272137
H         5.66643162397535    6.36994730137956   16.03195173754567
C         6.19787297289077    5.57905871131624   14.11951767340976
C         5.69949862816426    5.05210964553063   12.92314906763981
C         4.33978058625601    4.75607109323075   12.79080898218538
C         3.47264954990766    5.06021567256151   13.82943373697646
H         2.42252691952468    4.82282706977221   13.73314405063867
C         3.86045418577101    4.09733918567152   11.52585993311647
H         4.08278071875344    4.74056117753546   10.67289978379097
H         2.78007890096045    3.94340430178726   11.58044808206412
C         4.46279507413251    3.09064109581406    8.12137341095273
H         4.76399069289036    2.14729946102699    7.64260948964688
H         4.56655373075631    3.90778187911312    7.40366125279832
C         3.04648172408859    2.98625233815896    8.62216203655777
C         2.59774993040082    1.79965361845923    9.19130604080781
H         3.23692330450800    0.92835745938311    9.19082516232685
C         1.34457848563000    1.72570553311302    9.77220845547820
H         1.02269203153860    0.80806146514457   10.24099411319068
C         0.51795149547416    2.83652201843044    9.76972898496984
H        -0.45740809292927    2.78250442139188   10.22979119077293
C         0.94673727728830    4.01533101905257    9.18233786451986
H         0.30200872692993    4.88224290113618    9.17474545800838
C         2.20898306119697    4.09371925651934    8.62043156979476
H         2.55280370562825    5.02346350806825    8.19027965286646
C         9.78579022784858    3.85504584551855    9.48962245623444
H        10.74004121826602    3.32196986246261    9.39606055961812
H         9.90790853264556    4.67146771245256   10.21543967855519
C         9.45178704391676    4.45730005822287    8.14645955212324
C         8.14919123287173    4.50463400000611    7.67349311771494
H         7.35746496920311    4.08916639580003    8.27807230444166
C         7.87403205670548    5.07824687833410    6.44342572749980
H         6.85708415975657    5.10418053088051    6.07756930872571
C         8.89438723834482    5.61851722630935    5.68133518603040
H         8.67854363500737    6.06771232662061    4.72288782135922
C        10.19620310043147    5.58018913870810    6.15339868145417
H        10.99803407021325    6.00029730154773    5.56307186757685
C        10.47438984509576    4.99874036568759    7.37660487772199
H        11.49120573389886    4.96562513846243    7.74265288623726
C        11.14324537073736    5.51797168515799   12.97532750113563
H        11.65604299061502    4.71871158941711   13.52287595015173
H        11.03979115248521    6.37989163953051   13.65594289889381
C        11.93615663364676    5.92087381327237   11.75960974277629
C        11.36693581098028    6.77908801181215   10.82568868385279
H        10.37058150482773    7.15841310219368   10.99615852762641
C        12.06191672868758    7.13205235110488    9.68364489120071
H        11.60640638572276    7.79197957895189    8.96033707758944
C        13.33759879052883    6.63710005116577    9.46779260020183
H        13.88247489395575    6.91366965705177    8.57713476923280
C        13.91165208286201    5.78471944434330   10.39507349319979
H        14.90526549930732    5.39445069720317   10.22973109063234
C        13.21136668064157    5.42252552315793   11.53334826748937
H        13.66003334850378    4.75029906922008   12.25129247498182
C         6.96567737468147    5.87940603787063   11.09896358119613
H         7.54999857452681    5.43132240794656   10.29579751203710
H         7.62107012188322    6.52724363608213   11.69754195616808
C         5.82907815637462    6.69921749877250   10.54111998054352
C         5.09805761591092    7.54601743264714   11.36756893129386
H         5.37327248385824    7.65705418288682   12.40664381222822
C         4.01373046298870    8.24898447797945   10.87205091911710
H         3.44852891992115    8.89406139910417   11.52888577939070
C         3.65795877816523    8.13190921159831    9.53983851859950
H         2.81272705223700    8.68266088492833    9.15316190599721
C         4.39862611538256    7.31380760596337    8.70354914851765
H         4.13796672358582    7.23473709697999    7.65714446832367
C         5.47321602788207    6.59890863846261    9.20191046264227
H         6.04431909306239    5.95595696847902    8.55240732853367
C         3.30456493142344   -1.80925293411089   12.11861140945839
C         3.40273807099906   -1.82743527373689   10.73384622207507
H         4.15272827144043   -1.22793788809974   10.23940030831297
C         2.53178516140021   -2.60069042370332    9.98751644900581
H         2.60528704044489   -2.60415444688762    8.90933499780080
C         1.56359719280831   -3.36242174291263   10.61910697930635
H         0.88071449685549   -3.96094480369541   10.03385465385797
C         1.46324723529454   -3.34790601049578   12.00034644973748
H         0.70238836571634   -3.93793852803139   12.48779957687927
C         2.32587473188922   -2.57125452543605   12.75086404637209
H         2.23771415495959   -2.53220420657939   13.83558716492899
C         5.83743361889666   -1.89078070607619   13.38831187714405
C         7.11443540518475   -1.34355904985993   13.45622118181915
H         7.24546236530813   -0.27515388616476   13.36457232075954
C         8.20665231827102   -2.17050238208666   13.64031446412755
H         9.19865893958438   -1.74593989459357   13.68349746059135
C         8.03410243350835   -3.53862344277922   13.77223051318564
H         8.89060258956562   -4.18062037955352   13.91873099516688
C         6.76131073381478   -4.08341085097154   13.72392126451749
H         6.62370463120778   -5.14943949751322   13.83662882799257
C         5.66457819689665   -3.26331440556043   13.53370945793887
H         4.66808962828485   -3.68130754536916   13.49626890892642
P         2.23211180491917    1.18146348354764   16.63109544641496
Cl        1.33942158049711    0.34940766257524   13.75224977476826
O         1.24502476391436   -3.04476556445590   20.65593405883710
O        -2.14784107815096   -2.61822821481048   19.87396800115487
O        -3.22652495329940   -4.73102132965722   17.26125667318765
O         0.09084031736948   -4.39502989201080   17.96545647236240
C         1.66994895090104   -0.15704665520331   17.71246312396480
C         2.24722891706699   -1.41029065489146   17.54326589718908
H         2.88575104232580   -1.60692985905036   16.67177570668159
C         2.07390472102720   -2.40179347840192   18.49481556883260
C         1.28227753130075   -2.13416700815268   19.61752848062244
C         0.57488780058066   -0.93166418786240   19.71838769754968
C         0.79465240839787    0.05385112857581   18.77010454351624
H         0.27634989789450    0.99912130441243   18.85761886135318
C        -0.43633625780375   -0.66807033167772   20.81247859633625
H        -0.10489222047811    0.16067496673682   21.44451685701985
H        -0.56279381337897   -1.56065374207145   21.42296541055335
C        -3.23350692562592    1.33129545585870   19.22353934584676
H        -3.53763446392366    2.36149110956525   19.11404363359549
C        -2.10959989173332    1.01077162275663   19.96190867114217
H        -1.52449262769679    1.79666800642292   20.41884279154769
C        -1.73456913040067   -0.31138084896927   20.13790106101870
C        -2.51238516573821   -1.33335757930537   19.57567268757667
C        -3.57419849758911   -1.01014379333065   18.71931295644572
C        -3.92911326001249    0.32624276510134   18.57941767475471
H        -4.76341236747719    0.58141833552187   17.94006864451662
C        -4.19963252114129   -2.02868281245427   17.79482308656558
H        -4.51601673722948   -2.93055515082736   18.31232869008400
H        -5.07708794975630   -1.58246710914962   17.31697680360796
C        -1.59984650134368   -1.57105078801564   15.08707615223364
H        -1.17108792455605   -0.76467676694575   14.51139653738738
C        -2.61636411671402   -1.33603822161908   15.99190102030293
H        -2.99000073554312   -0.33317769854859   16.13771123516729
C        -3.16344729092085   -2.36746021349044   16.74358912436596
C        -2.69252915406023   -3.66772105511295   16.54904861134369
C        -1.65069660040432   -3.91259696220102   15.65288185752268
C        -1.10828911708302   -2.85269380277964   14.94124281688336
H        -0.28799831502173   -3.03094172285225   14.26437726912742
C        -1.06398662024257   -5.29245707344916   15.47521778604640
H        -1.25004839902926   -5.64565400506707   14.45623849288953
H        -1.54809665686122   -5.98445215517578   16.16597152239546
C         2.67557969686808   -5.31318489500605   14.85691183101451
H         3.35647128580483   -5.59320534893487   14.06604284190893
C         1.32089627970426   -5.55037283785059   14.70867391446984
H         0.95332070954321   -6.00172325192446   13.79714278664177
C         0.42196654421504   -5.21090285871996   15.70962982992571
C         0.92039543966892   -4.68397173436831   16.90598123883184
C         2.28010852257795   -4.38786892128407   17.03823557943586
C         3.14718181352677   -4.69192612819360   15.99953692946428
H         4.19729470507142   -4.45447108150280   16.09576256668256
C         2.75950460670686   -3.72910972442365   18.30314190088504
H         2.53722499168536   -4.37229320237028   19.15614035193336
H         3.83987537155173   -3.57517031661552   18.24849294655633
C         2.15726799489204   -2.72222868000763   21.70761590422670
H         1.85612019140298   -1.77879970826593   22.18623749949037
H         2.05347398366812   -3.53925957609816   22.42544710826034
C         3.57357858678574   -2.61798315775967   21.20678543708087
C         4.02235854525274   -1.43150173810078   20.63743138125301
H         3.38324603716649   -0.56015956790927   20.63781494296630
C         5.27550101873983   -1.35772930995605   20.05643695063703
H         5.59741003016748   -0.44018880700771   19.58746540015448
C         6.10205323745356   -2.46860100104324   20.05904676774086
H         7.07737998492217   -2.41473370526045   19.59889407878432
C         5.67323106378334   -3.64728332726250   20.64666528886204
H         6.31790680145494   -4.51423270940339   20.65437647499425
C         4.41101259322864   -3.72549913068347   21.20865845299441
H         4.06716403587452   -4.65514676912902   21.63899451026286
C        -3.16583898422066   -3.48672453330036   20.33924625864818
H        -4.12009358960037   -2.95366127822238   20.43282101758307
H        -3.28793470807376   -4.30312848344307   19.61340859999880
C        -2.83183461564101   -4.08900429656504   21.68239363144341
C        -1.52921825871484   -4.13644368914759   22.15530021080322
H        -0.73748838472085   -3.72105774191178   21.55068157042829
C        -1.25405558602964   -4.71008781391363   23.38535227648951
H        -0.23709512520333   -4.73611104057293   23.75116362920203
C        -2.27442389164264   -5.25030125040070   24.14747751603119
H        -2.05857800756683   -5.69949726402486   25.10592081377073
C        -3.57625741379709   -5.21186965523884   23.67547034570847
H        -4.37809494977073   -5.63189570897840   24.26583326376161
C        -3.85444896672964   -4.63037770477874   22.45228483295013
H        -4.87127572070336   -4.59716670955047   22.08628326337370
C        -4.52342561062482   -5.14964944053985   16.85397188722491
H        -5.03626822923802   -4.35041453890684   16.30643161637985
H        -4.42003036529277   -6.01160474130106   16.17339434264446
C        -5.31621215388335   -5.55249220050377   18.06979173206742
C        -4.74701750287305   -6.41094136978505   19.00351409952835
H        -3.75079148099659   -6.79049937540580   18.83280754101434
C        -5.44183890115782   -6.76381242123055   20.14567893287256
H        -4.98635313982596   -7.42392885173901   20.86882739109154
C        -6.71733597558665   -6.26852840178325   20.36185761866971
H        -7.26210006864488   -6.54504748710452   21.25260356292702
C        -7.29136390341489   -5.41591173170416   19.43477968019232
H        -8.28485110966602   -5.02540856735390   19.60035904876139
C        -6.59123485604682   -5.05381737892281   18.29637841420244
H        -7.03988115605524   -4.38141493698596   17.57858600968056
C        -0.34559561068374   -5.51146956374032   18.73017438936422
H        -0.92999556850778   -5.06352244598563   19.53336099698656
H        -1.00088226411751   -6.15938286723430   18.13155961686786
C         0.79114173937439   -6.33111929837051   19.28796835641325
C         1.52219187640786   -7.17787850307475   18.46150469277189
H         1.24688653196779   -7.28902687927375   17.42246482220255
C         2.60666304876099   -7.88066453648794   18.95696605676525
H         3.17188121929091   -8.52571934873158   18.30012336819459
C         2.96255984664929   -7.76343389077068   20.28913146004878
H         3.80790781903229   -8.31403965346679   20.67576051450921
C         2.22186874917115   -6.94537017629339   21.12543763778952
H         2.48263060317725   -6.86617522017940   22.17180781921308
C         1.14712826184449   -6.23065825753022   20.62713357417062
H         0.57601293819984   -5.58771958841286   21.27663958958711
C         3.31536200869623    2.17749718103967   17.71035239171604
C         3.21716399804296    2.19569592357693   19.09510986184331
H         2.46720557826940    1.59614252716811   19.58954008021498
C         4.08815798905898    2.96889737805634   19.84143762599084
H         4.01465831565878    2.97238038308209   20.91961750984938
C         5.05637883710981    3.73057595012367   19.20982451960248
H         5.73924287562026    4.32913039627075   19.79506237849318
C         5.15674283991523    3.71603415164788   17.82858452006857
H         5.91759910617355    4.30609147922157   17.34115512022392
C         4.29409472605953    2.93940877941376   17.07806550218377
H         4.38223013555700    2.90036710973789   15.99333708201321
C         0.78252241040186    2.25895321635286   16.44060399555310
C        -0.49448099429746    1.71172398599746   16.37267046802315
H        -0.62551399754423    0.64331678259536   16.46424822132150
C        -1.58670991984968    2.53865805247376   16.18858454954180
H        -2.57871114353991    2.11409047634556   16.14535719560185
C        -1.41418276025596    3.90678906386164   16.05670816973665
H        -2.27069479961309    4.54877957140786   15.91025025347462
C        -0.14140070286850    4.45159074421939   16.10508310491424
H        -0.00382711466793    5.51763215972235   15.99244389782765
C         0.95534570738423    3.63150005562267   16.29527512700671
H         1.95181724152822    4.04952692419333   16.33275548739256

