154
CSD_code = SUWHEY | q = 1 | S = 0 | Stoichiometry = C77H69NO5PPd(1+) | MND = 4
P        -0.04932658009726    9.51915124101402    7.61712647046565
Pd       -2.13265178985659   11.82223785808207    5.87818703294985
N        -4.30732037494581   11.51655954648938    6.16229565033984
O         3.47426891324583   12.92953756252406    4.22948673523873
O         0.26353007975308   12.37928277269738    2.96459333843013
O        -0.63749488070772   10.38072685451819    0.36449962107574
O         2.78372163646426   10.38917478042433    2.23550004619616
O        -1.48545291277001    9.78429553018899    7.35636188542184
C         1.02912702288674   10.40977857528194    6.44799915992138
C         2.29403410543337    9.99447100166597    6.06946038845690
H         2.66696319917974    9.02908646467578    6.37632645771348
C         3.07984431859917   10.79039251406116    5.24696957655427
C         2.66195736676238   12.09139621820601    4.95169538946727
C         1.39813776444570   12.54075374402056    5.36144907376106
C         0.57665900526342   11.65520732779973    6.03701792537491
H        -0.46546835284064   11.95658993094775    6.29952262222980
C         0.92759001319634   13.94918423585190    5.07758509375749
H         0.99610423143986   14.55116645675224    5.98897932161738
H         1.57921574455260   14.38991648022612    4.31856633075702
C        -0.78283267036310   13.06661597125279    3.51857682571065
C        -2.10433234082029   12.89617509035223    3.07543783161604
C        -3.08994985415585   13.73449141697273    3.59524210840421
H        -4.09224671903418   13.68578122938072    3.18889894749759
C        -2.78827202862372   14.66534470356231    4.57968121458670
H        -3.54930454656312   15.34250654490964    4.93895610288520
C        -1.50535687266107   14.72818360573559    5.11286126080387
H        -1.28148030425867   15.43618585874225    5.89848665811864
C        -0.49142461202665   13.93822228808205    4.58028267855500
C        -2.41210554896261   11.78887370659530    2.09886055251297
H        -2.11890633633082   12.06357648530262    1.08337520760739
H        -3.48985911601980   11.59539682221053    2.08988659717258
C        -0.78183731171556    9.89286042612690    1.64531361252559
C        -1.66503432242585   10.54094806392010    2.51530919958525
C        -1.80885646337102   10.06629731758008    3.81441933402789
H        -2.48763020404390   10.58995355305768    4.51922212994123
C        -1.17141595390065    8.90584553157572    4.21555938779025
H        -1.34983024534412    8.49199633155501    5.19856484403564
C        -0.28388721210105    8.29043357708888    3.35511632638573
H         0.24001081814634    7.40097414029457    3.66931767059891
C        -0.02241295931454    8.80824953944480    2.09447371087970
C         1.13038150707369    8.25319570897341    1.28858733457020
H         0.85943849504132    7.30418644903374    0.81797066991299
H         1.39529410015982    8.97154693851441    0.51186255149910
C         2.97062175360503    9.13019189547165    2.76697487610210
C         2.28349089495909    8.03527725148271    2.23506380732805
C         2.58960921894841    6.76552534303077    2.70794574984892
H         2.08523370986182    5.90840135469369    2.28484125647566
C         3.52973257604898    6.58603585072855    3.70635911543689
H         3.78130728102158    5.59155823650533    4.04270365143160
C         4.11085378859085    7.68702704561617    4.31074937731212
H         4.78745338393040    7.54948472144272    5.14213798215787
C         3.83478642194066    8.96798198972217    3.85674534546145
C         4.31116679271114   10.18538339164538    4.61701597926170
H         4.77393361145476   10.91856872085275    3.95749563913251
H         5.03293301189320    9.88497845367185    5.37983493868823
C         4.41340437418542   13.65417777400337    5.01958519516860
H         5.09469016276441   12.95151683081860    5.52619747911091
H         3.88834054010786   14.23145843032910    5.79337350388004
C         5.19291729395640   14.57301161043721    4.11964139828922
C         5.79385929865173   14.07396199199442    2.97079619808082
H         5.69552018077261   13.02564924127306    2.73114485082593
C         6.50693161715852   14.91144830843660    2.13258161793858
H         6.96551438538657   14.51481957380935    1.23913052764122
C         6.63806044446688   16.25507856067387    2.44227175017742
H         7.19892932003126   16.90844693782456    1.79137689990331
C         6.04622295707666   16.75766960697193    3.58856052675186
H         6.14419945095669   17.80452650409439    3.83399628614762
C         5.31958720803271   15.92189474881013    4.41953329360534
H         4.85254443542589   16.32030013599028    5.30880821036989
C         0.68497134570191   12.83691299673378    1.67595581974185
H        -0.08330861255562   12.62834632254571    0.92496294743716
H         1.55346768416732   12.21473341063165    1.47343501261575
C         1.02498703483046   14.30378052662120    1.66476454833088
C         2.33270755337809   14.73452463685613    1.85025950811471
H         3.11846994509163   14.00865872102132    1.99086121658222
C         2.63156922093208   16.08571121456174    1.87570627076740
H         3.65362182079721   16.40423607268075    2.01533195485511
C         1.62294658323972   17.02232983305325    1.72499075223818
H         1.85509748180365   18.07639823904169    1.74494412576632
C         0.31624151465665   16.60298809739763    1.54119494110364
H        -0.47377685819571   17.32868173834851    1.41784320543823
C         0.01999508102644   15.25185830561194    1.50698527307937
H        -1.00182209321537   14.93335722149219    1.35234350626710
C        -1.17401770376651    9.54302735753151   -0.65004457097013
H        -2.27410073298740    9.51842166216351   -0.55272389715779
H        -0.81044852582194    8.51423666611866   -0.54110449103430
C        -0.80671334864344   10.07800619123006   -2.00744936117392
C        -0.61220308033127    9.20204515633185   -3.06730459899763
H        -0.69515044884997    8.13713362628130   -2.90363995836332
C        -0.31834048158915    9.68550973063131   -4.32974504207779
H        -0.17304467206142    8.99676486772856   -5.14834858692141
C        -0.20556502233729   11.04944149359004   -4.54284619026423
H         0.02678937826007   11.42712275983315   -5.52716214680196
C        -0.38795116159161   11.92696395954250   -3.48737975024192
H        -0.29659269363652   12.99135477470979   -3.64649401337711
C        -0.69161637382865   11.44353628656381   -2.22698508646467
H        -0.83194667667424   12.12828644821701   -1.40490297889508
C         3.82905486625564   10.76532951874073    1.33401859567271
H         4.80709985126277   10.49108870583434    1.75136519003860
H         3.76512328104490   11.85326212601020    1.25153178737043
C         3.65428198469002   10.11351537357006   -0.01283749097483
C         4.18666486050069    8.85114053328444   -0.24959986194061
H         4.77709147377974    8.36553894378661    0.51533088177194
C         3.96306964516784    8.21331435604922   -1.45730686060883
H         4.37800761196598    7.23136412676792   -1.62985996591944
C         3.21495551074968    8.83600911150264   -2.44222330518378
H         3.04238027871231    8.34151983030543   -3.38631107478665
C         2.69343068697179   10.09925644636196   -2.21838401838083
H         2.11962615137583   10.59208706322920   -2.98776378462984
C         2.90397662356541   10.73179334276792   -1.00603618084112
H         2.48377157660851   11.71175260820190   -0.83007386063290
C         0.36008458195192    7.74671579586388    7.63112920694255
C         0.05354963033191    7.05011357912057    8.79413986008366
H        -0.36377393380322    7.58553433412405    9.63671859139055
C         0.28339873338910    5.68851353230229    8.86569582747777
H         0.04767907453365    5.14850063713332    9.77010607490957
C         0.81818587850722    5.01996858655398    7.77540380796207
H         1.00201780918567    3.95790491489400    7.83224944978083
C         1.11433621346301    5.71232459789947    6.61292534858676
H         1.52766418736280    5.19314292392068    5.76117729670270
C         0.88394467969151    7.07501119798420    6.53611465846933
H         1.11370980370627    7.61474699836352    5.63030090312481
C         0.45568455787631   10.16791732275700    9.23661799174791
C        -0.49787813605990   10.81508537398074   10.00906062846474
H        -1.50757444814652   10.89955131558844    9.63128353666280
C        -0.14795881124915   11.33747769561076   11.24137065646252
H        -0.88892202948937   11.84099812591333   11.84401874588617
C         1.15354135434507   11.20960532483090   11.69848399444461
H         1.42842384446109   11.61377707805538   12.66094936045588
C         2.10652178769183   10.56178353854997   10.92593303381947
H         3.11830216740513   10.46261747788459   11.28927338495248
C         1.76148611885292   10.04146593889441    9.69271318173426
H         2.49414254862146    9.53293184333818    9.08226643057047
C        -2.41792820037077   13.00812506832770    7.46238642013204
C        -1.43119274863771   13.47519102358924    8.30879088113192
H        -0.38374921024703   13.24767436800171    8.15086316920971
C        -1.77838708066009   14.25885328298548    9.40377975965683
H        -1.00261208501205   14.62151572403040   10.06099505667535
C        -3.10324661145208   14.56645604748977    9.64938159585894
H        -3.36977883734515   15.17332316858966   10.50058072831850
C        -4.09107834995862   14.08913678872479    8.80615821598898
H        -5.12860350487301   14.32022941130679    8.99721982517361
C        -3.75675137870984   13.30655445839473    7.70820516447330
C        -4.79317818548992   12.77312832855333    6.75953032576954
H        -4.95168176409558   13.50101970187906    5.95555524816143
H        -5.75605644313432   12.60824084421632    7.26514052956235
C        -4.39128446131549   10.43897559375752    7.15633833452888
H        -3.86592740575566   10.73018656532089    8.06661969272791
H        -3.92437936134661    9.53196350410318    6.76761415016823
H        -5.43944311940455   10.22579187261226    7.40054797288193
C        -5.13605080831513   11.15524450826062    5.01346941016657
H        -5.04252041075185   11.90567186763858    4.22885518555161
H        -6.19106027995884   11.08925684338729    5.30771755035747
H        -4.83428784862462   10.18380758565450    4.61867001899895

