55
CSD_code = SUWVEN | q = 1 | S = 0 | Stoichiometry = C26H22AuN6(1+) | MND = 2
Au        1.54236467582793    9.85148659448810    9.54049087083061
C         2.36990330650517    8.94973430557254   11.15002157247524
N         2.79477516056114    7.67993252699196   11.30733192717997
C         3.78317431967724    5.21103108588617   12.03554252174515
H         4.15961287805313    4.23104656696382   12.27823967126778
C         3.30940647171650    7.48465686744121   12.58913145056137
C         3.25441750540069    5.44525801933079   10.73544309000269
H         3.24055033058710    4.64268358966541   10.01718849461789
C         3.81226729340539    6.21303719758528   12.95114258515075
H         4.20690755594925    6.07734687620978   13.94437587030798
C         2.77334699526952    6.66223412346806   10.39558674832296
H         2.36730151635384    6.90691414468999    9.42656383020765
N         2.40655580833241   11.69431876164611   11.49915386421046
C         2.09149753802094   11.38697711367573   13.84782248866282
H         2.03202836720127   10.72195222662996   14.69338045020604
N         2.62015473362641    9.55423837242129   12.33173832408476
C         2.36181849433709   10.91591420346215   12.57079539401855
C         2.35571030277703   13.83864401007045   10.40928437396609
H         3.25384250888155   14.45007489307770   10.48593085994641
H         1.50553752177372   14.50842636906864   10.30178139890042
H         2.44116241021199   13.20414777980760    9.53229120314820
C         2.22205237351441   12.99961067040440   11.63660963069588
C         3.18471673430564    8.69168400449837   13.22834537232303
H         3.48805416482752    8.97863008917966   14.21219822040116
C         1.87605005097023   12.75023834293223   13.99266379160922
H         1.65745246947942   13.16196144914056   14.96580995353172
C         1.95077967578598   13.56901871485962   12.88119951798575
H         1.80685283382677   14.63407952842361   12.96704285230916
C         2.81315250545198    8.39139937257188    4.45186203764165
N         2.19614232653630    9.42360274371942    5.00728214924226
C         1.33025707357353    8.00633427315624    6.72600692699655
H         0.69897860661552    7.89817821100208    7.59252412536904
C         2.73620819856891    7.11341645300580    5.00977741534429
H         3.24986526328378    6.28944664615316    4.54077607748415
C         1.49326549011610    9.23935292560419    6.11182059521530
C         1.97992037338656    6.92257561800255    6.15059293686019
H         1.88031667348119    5.93858612881204    6.58425660616977
C         3.58519457510507    8.65506257124635    3.20386069848860
H         3.15461879915970    8.09841482555893    2.37311483481735
H         4.61737283432582    8.33143108964637    3.32188582897171
H         3.56312765658623    9.71543162928477    2.97254698502657
C         0.31832775251759   11.33860855715138    5.78462619156836
H         0.36233924157795   11.24913807664163    4.72058867033201
C        -0.23370088123672   12.30040307364449    6.59074866741177
N         0.02388468041231   11.88905999985067    7.89917172679263
C         0.70845691487597   10.72415231366766    7.91201273868807
N         0.86271723625072   10.39936744161033    6.60981635121783
C        -1.36661930929997   14.22583641416293    7.43410007826252
H        -1.91109154759605   15.14561873199252    7.29790266504960
C        -1.09854858657985   13.77043255443224    8.75487963564279
H        -1.44980887383317   14.34575953389261    9.59540923974846
C        -0.94383018220042   13.50238423202406    6.36580982524608
H        -1.13075520680847   13.80750313439272    5.34972264653369
C        -0.41537866418405   12.62237989495669    8.96465827186375
H        -0.18250694720837   12.22294512630494    9.93933974535360

