64
CSD_code = SUWZOZ | q = 0 | S = 0 | Stoichiometry = C22H36Cl2OSi2Ti | MND = 12
Ti        2.89502779014271   -3.64470748207514    9.24412725885628
O         0.09273137459178   -0.79677042087029   10.49699299145394
Cl        3.24305669109091   -5.86063357426653    9.38610471084438
Cl        4.82214134284483   -3.42424705673974    8.10186418939398
Si        0.89609168073366   -1.43035738793118   11.78254050207674
Si        0.08270311632808   -0.91823734177607    8.85833172134289
C         2.28393157462300   -2.52623395996903   11.13536862002083
C         2.65592948690301   -3.82151382878267   11.61699365563636
C         4.05608979181811   -3.98013872122589   11.48175799046500
C         4.57796946508283   -2.80700797357279   10.89366476587237
C         3.49787484673959   -1.93294561689415   10.62548295632938
C         1.77106960767061   -4.81616429429333   12.30582739483445
H         1.86944837716121   -5.79997092520200   11.84162372581993
H         0.73179682563875   -4.50782238703501   12.26598171583011
H         2.06314205795890   -4.91077329381999   13.35375030415434
C         4.87962728720813   -5.12982267673395   11.97038502526129
H         5.61116996696955   -5.42716099283601   11.21823571808550
H         4.25490687269944   -5.98950963394504   12.19916536041882
H         5.42144979629103   -4.83945384361050   12.87347773035128
C         6.03345445663650   -2.49246086140023   10.74493085345443
H         6.42512293943820   -2.14072144266048   11.70303735368424
H         6.19580385405161   -1.71790153440639    9.99893156037255
H         6.59780765765766   -3.37656872516015   10.45230018619783
C         3.67482378768283   -0.53246967908141   10.11793089575178
H         4.23388866237746    0.06164970810489   10.84415143856243
H         2.71188323530929   -0.05833281036821    9.95520215050500
H         4.23962527288697   -0.53395401711497    9.18218927164126
C         1.66662384065647    0.02838796722271   12.74841606032730
H         1.80011656009280    0.90164431518005   12.11903611826964
H         2.63402767092892   -0.23482352938488   13.16386095432413
H         1.02732717036234    0.32027431864282   13.57527862581832
C        -0.41711652613796   -2.21477737353552   12.91957323603915
H        -1.11133930911583   -1.43907402323780   13.22798425264956
H         0.03807777593910   -2.62057216933739   13.81629024056723
H        -1.00420401155131   -2.99992372616681   12.45566126856087
C         1.12353962646264   -2.41795691679195    8.39810972691229
C         2.05524079629687   -2.53592600066950    7.32442921941052
C         2.13469464120972   -3.89744943771456    6.93292606433149
C         1.24265282013172   -4.64081955306290    7.74352878344490
C         0.66057278793863   -3.75543696704497    8.67792261300617
C         2.72219044384923   -1.40872245457295    6.59636931531551
H         3.77440952670295   -1.63292771168209    6.41731711013852
H         2.65295217998439   -0.48552675874989    7.16267286722644
H         2.23976523764561   -1.25820195446231    5.62798339947523
C         2.91038519018513   -4.45988937722515    5.78227455282248
H         2.23128178060582   -4.72107756537552    4.96752605246126
H         3.44279216198533   -5.36340660989421    6.08466082975549
H         3.63776908189837   -3.74129659615599    5.41268286602605
C         0.84004956952233   -6.06581133483724    7.52216053792907
H         0.58688315517789   -6.55655517418224    8.46022662909802
H         1.63845956383939   -6.62965872344938    7.04490830020910
H        -0.03827085148473   -6.09296125719711    6.87157618691987
C        -0.47483453910458   -4.15048030824242    9.57309026522852
H        -1.36269874712940   -4.35282113928242    8.96921349084814
H        -0.71188364714032   -3.35766626782328   10.27477964717669
H        -0.23593194724996   -5.06255060926187   10.12256434908743
C        -1.72595306557090   -1.22247701787006    8.32357402226028
H        -2.27175141225799   -1.81870477817179    9.04641514893423
H        -1.77306395095451   -1.73300057363887    7.36682860953634
H        -2.25397601711577   -0.28034537804863    8.21640607645167
C         0.57859507460631    0.79010677230034    8.17365881130254
H        -0.10947715891175    1.53107454671947    8.56957942700229
H         0.49685936800737    0.81452526229722    7.09258805757982
H         1.57986734116176    1.11005887837112    8.44177623633517

