120
CSD_code = SUXBAP | q = 0 | S = 0 | Stoichiometry = C57H57Cl2N2PRu | MND = 5
Ru        7.09077722767045    6.07143942271667   11.64630763352802
Cl        8.94335789766546    7.02725613462296   12.74464806620953
Cl        4.85855443528306    5.52618385202192   11.05145353476738
C         6.90557499555294    7.47940415712128   10.18829861419559
N         6.17975618510561    8.59859655068096   10.27583303291177
C         5.89837459399082    9.20172311252216    8.97394863875728
H         6.29566183563633   10.22198204878907    8.93878466060601
H         4.81932599127617    9.24753588570617    8.80619845754948
C         6.59680067400281    8.24997990047417    8.00591690884113
H         5.90154524951849    7.78333590485730    7.30343691516516
H         7.39579423923550    8.73003269322466    7.43048817917542
N         7.15795909542443    7.24184162679121    8.90145837338826
C         5.84688448752258    9.34953555505203   11.43881115680101
C         6.83976188497406   10.12422253306125   12.05208718162353
C         6.48994389783604   10.91101965722727   13.13900346901578
H         7.25467065025245   11.49733057510672   13.62805760590629
C         5.18202504702526   10.98284473456538   13.59623789910667
C         4.21020945110398   10.24204200226432   12.94205394031391
H         3.18110424832431   10.30272074479276   13.26923792217223
C         4.51845315807777    9.41926080455239   11.86637565657188
C         8.24964808046551   10.12691921549827   11.55359606985667
H         8.77448189585549    9.24480081861047   11.92572686977183
H         8.77596185861380   11.00836975906748   11.91094187422001
H         8.28982734855743   10.10898947452425   10.46631446609979
C         4.83966335355820   11.84808959336189   14.77194654834010
H         5.19065173490510   12.86619904507017   14.61098586376467
H         5.32493111771748   11.47002666444017   15.67215355312591
H         3.76535958633413   11.87259398963633   14.94012541767110
C         3.42690545308397    8.65350885658719   11.18619611352779
H         3.05657858437993    9.20386574016829   10.31965465628036
H         2.59219492820096    8.50359830437953   11.86703245467731
H         3.77661794964674    7.67818866646006   10.85274992748704
C         8.01918428657588    6.25817691356633    8.34351111697150
C         7.48312346740300    5.15517575654763    7.68068851593019
C         8.35349312631350    4.27783097549044    7.04725555238706
H         7.94280861553919    3.41800292116845    6.53697594799721
C         9.72312862813880    4.48359219590996    7.05225760283322
C        10.23068795559095    5.58893890244928    7.72278096894503
H        11.29858371428719    5.75235679631838    7.73847321867033
C         9.39930520718860    6.48454965711436    8.37213667178305
C         6.00593276043516    4.91547204911258    7.63820469387653
H         5.55417392982130    5.45271531418367    6.80271416469555
H         5.53287617470821    5.24847852775143    8.56017911087166
H         5.80135087077280    3.85612558181442    7.50449736806603
C        10.65590349525219    3.53966149469568    6.35648696715691
H        11.26584799619309    3.01437299759543    7.09129661312815
H        11.32855343688077    4.08542714672568    5.69668082413057
H        10.10639829693486    2.80899385825035    5.76797595917222
C         9.95575934525684    7.67037851104704    9.09659674338291
H        11.04158286638601    7.65535215223571    9.07601832427446
H         9.62522896599729    7.65683868213435   10.13495520190911
H         9.61492884621274    8.60150120998781    8.64343715532817
C         7.95653396067573    4.55377444694661   10.81411575637250
C         7.20504527115537    3.43266871853458   10.34763800577876
H         6.13050757336972    3.37584795510768   10.36116388952451
C         8.02068577329528    2.48337290529311    9.79233570488412
C         9.40006825022651    2.93508903842220    9.96549160774348
C        10.60450602657925    2.31012084548549    9.72283592835883
H        10.64368206877535    1.30838730453946    9.32006437453727
C        11.78609810444264    2.97993648331895   10.03328385897405
H        12.73564549534444    2.50158702469164    9.83668901807235
C        11.75262040382696    4.23909261313344   10.60065474195096
H        12.67726295667243    4.74401229722210   10.84005765423199
C        10.54188468212858    4.86299773634773   10.88775515861366
H        10.53308004588473    5.82683012601122   11.36999333042727
C         9.36017567364826    4.21444919491891   10.57826542000960
C         7.57651761361306    1.28030896739341    9.11883091498629
C         8.27503751339684    0.75441678297567    8.02896873022634
H         9.15643499077533    1.26188970314385    7.67010416390255
C         7.82171417605141   -0.37866751260447    7.38143032938957
H         8.37095905568007   -0.77001591627938    6.53657674073402
C         6.66509839975649   -1.01212585473310    7.80605360303187
H         6.31572764934960   -1.90090522787064    7.30111941554454
C         5.95460424612045   -0.49234801166587    8.87688193957407
H         5.04564098420159   -0.97569182306750    9.20556413574398
C         6.39971091912554    0.64297131865600    9.52363207327564
H         5.84873184844670    1.04027635380767   10.36169785232206
P         6.73576796857473    4.70065126928596   13.48251635493581
C         8.09290391578893    4.45813879041478   14.67499830263823
C         9.33960970461773    4.10117238219861   14.16568805929000
H         9.46750737297657    3.99684113819999   13.09581208175217
C        10.41010471365617    3.90927911889773   15.01390699122244
H        11.37335278061331    3.63895529348640   14.60494504022364
C        10.26767079764838    4.07554410641518   16.38820978740345
C         9.02421740447907    4.43844524466323   16.88724807483400
H         8.89665998842462    4.58077802579700   17.95152736664516
C         7.94420897111219    4.63168091620830   16.04444512997588
H         6.98969928697470    4.92637390926173   16.45757494110683
C        11.43881816169108    3.86608445674682   17.29826621630210
H        11.19849968388786    4.15592563922160   18.31808246424936
H        12.29214396867252    4.45062694839175   16.95870037154850
H        11.73307528518007    2.81653153068739   17.29668187594010
C         5.48490385525548    5.55775747567742   14.47582325895982
C         4.64692507825064    4.93762213642762   15.39905786499763
H         4.68921402614307    3.86447215057932   15.52755838447291
C         3.76468376872119    5.69512837589368   16.14284788924619
H         3.11204581734065    5.21015976625095   16.85559231536141
C         3.70688303731180    7.07833077143361   15.99513422901814
C         4.54822302529174    7.69019889920582   15.07539640991111
H         4.51775444349773    8.76135924355190   14.95027555207407
C         5.42359328175991    6.93804137112432   14.31613391057080
H         6.07970366031895    7.43229016971581   13.59012508949681
C         2.74207333882744    7.88394186322458   16.80987965449231
H         2.81168328312039    7.61595242156252   17.86287446547197
H         1.72072280461497    7.68663713923699   16.48395384914238
H         2.93791642374086    8.94799282034009   16.70393967242718
C         6.08078426108155    3.01619216895409   13.29586215041683
C         4.73376486502183    2.82450650311122   13.00219971712124
H         4.07406826817992    3.67612109867880   12.91801393391598
C         4.24256641542506    1.54916018557943   12.79604332760544
H         3.19449665129561    1.41490097111249   12.56769926372752
C         5.07801728429540    0.44114919204517   12.86688953973362
C         6.42629193327316    0.64261636025908   13.14568243565090
H         7.09174306929132   -0.20798573562003   13.19064461571359
C         6.92687291947092    1.91220482324409   13.35330369739386
H         7.97875278966810    2.04829514637727   13.56179207535872
C         4.55119012700169   -0.94426920520436   12.65063217795942
H         5.21402713576680   -1.50590309273139   11.99478306240197
H         3.55622984307826   -0.91933467070154   12.21299191918729
H         4.49414578346398   -1.47542225696978   13.60117774893504

