123
CSD_code = SUXBET | q = 0 | S = 0 | Stoichiometry = C57H57Cl2N2O3PRu | MND = 5
Ru        4.20765545678449    4.28150223657041    3.61631717270795
Cl        4.33501455696819    5.33494554738154    1.51223930597516
Cl        4.29189218138758    3.91503170690137    5.95984133803639
C         2.23633342038228    4.64364440960059    3.97397597092879
N         1.73807278864766    5.72717264056305    4.58036529424209
C         0.37056071637109    5.53537985662040    5.06207432153308
H        -0.29725245371376    6.26970406498487    4.59832317494670
H         0.33072417789667    5.67123439243704    6.14582187887560
C         0.06682152854909    4.09877330773872    4.64563552752776
H        -0.14412202197847    3.45118690334773    5.50047997970005
H        -0.76864136777218    4.02127753566654    3.94152758816459
N         1.30963326432699    3.68653038143701    3.99864647316495
C         2.26447964672759    7.04916914828293    4.61517761743578
C         2.19156416798590    7.83877346534829    3.46034867198802
C         2.62401087248094    9.15447272347373    3.52806937871089
H         2.58511674840982    9.76464419882143    2.63711948536013
C         3.07509383131432    9.71419697109832    4.71483672445451
C         3.09907835279047    8.92265830045362    5.85228900473613
H         3.42251227733778    9.34820612138177    6.79304096560217
C         2.70446101896362    7.59078139333775    5.82574720364418
C         1.64844240488552    7.29750734112234    2.17712449360039
H         0.77622509881419    6.66842980939559    2.34648060910637
H         2.40992489857596    6.69213885612581    1.68047835003110
H         1.37301804182604    8.10989148719198    1.50876493261581
C         3.50917792591118   11.14923270672288    4.75317108821425
H         3.83409340142844   11.43627502787384    5.75084746935532
H         2.68690784819261   11.79932309071170    4.45691680817552
H         4.32874198337627   11.31704736855752    4.05470202672218
C         2.74030624875495    6.78369171653209    7.08573207255299
H         1.76409400651799    6.79095628960407    7.57318116164039
H         3.46234050801369    7.20327296144035    7.78256208717027
H         3.01854939829679    5.75064643308831    6.88426667448163
C         1.33222524744104    2.42274649882500    3.34798145785081
C         1.50659219159811    1.25695387002481    4.09217769515479
C         1.40112434721527    0.03525411933593    3.44047992350882
H         1.54111516532574   -0.87101308186800    4.01261242348812
C         1.11661918021538   -0.04388336192602    2.08731473816175
C         0.95035238120580    1.13330346106164    1.36927844007250
H         0.73650773353264    1.08068099017911    0.31156078422118
C         1.05451600600284    2.37170188986271    1.97799586948443
C         1.79170870629141    1.30659317636085    5.56098842699948
H         2.39517695170150    2.17765989575471    5.80924246518918
H         2.32747703687758    0.41237664592798    5.86951236082661
H         0.86230307274017    1.35453652843628    6.13060704370965
C         0.99320082972620   -1.36567258274466    1.39261912261825
H         0.07099073370584   -1.40894993704965    0.81546040306042
H         0.99724456157196   -2.18561348287757    2.10669180443352
H         1.82458048537959   -1.49716218418097    0.70020862979909
C         0.88092861009383    3.63539454307558    1.19467256932867
H         0.75484863756572    3.41523041810027    0.13840870627547
H         1.75922657229314    4.26881659532065    1.31795011180968
H         0.00816911420060    4.19222588783223    1.53757779350594
C         4.31812336340374    2.43440831355393    3.05303871335671
C         4.70083627548209    1.40306918901862    3.96415924726244
H         4.88763226312052    1.55945840705737    5.01252904752677
C         4.70438000264043    0.17833559981765    3.35317287546891
C         4.39516469568518    0.39081630306182    1.94076625102531
C         4.40743448953735   -0.47018290582558    0.86469420095714
H         4.65765442396923   -1.51402898521222    0.98781416467302
C         4.11919182373847    0.03242970555856   -0.40250694106720
H         4.11778443454484   -0.63637443825662   -1.25199696875820
C         3.85270009809063    1.37600103349644   -0.58244509463757
H         3.63927453921441    1.75208663349796   -1.57244007795985
C         3.87365015575609    2.26093186904954    0.49193551115526
H         3.70713856917317    3.31281661339117    0.32741318937133
C         4.14806673616115    1.77600708557156    1.75770300464813
C         4.94267739011697   -1.09265788263358    4.00635522957739
C         4.26588595564254   -2.25085615346265    3.61718557866442
H         3.53743529324532   -2.19679081085934    2.82341665397218
C         4.49038734347289   -3.44885782055271    4.26787615230821
H         3.95394848653147   -4.33552178684583    3.96029007809693
C         5.39788383680512   -3.51876425922399    5.31237068469713
H         5.57776240676150   -4.45884993044586    5.81319301062661
C         6.06891330983213   -2.37431863858754    5.71434472383876
H         6.77764634463419   -2.42359950435301    6.52849094042824
C         5.83875505830072   -1.17250757875546    5.07598044464642
H         6.36712771605298   -0.28295611805053    5.38180386482474
P         6.52691816058813    4.25635966210744    3.68259421616633
C         7.44158862349692    4.45930273101933    2.12187838164248
C         7.11577513268284    3.60450826912389    1.06776022065581
H         6.33499448338713    2.86746256732537    1.20279418615193
C         7.75945092805248    3.70948306110959   -0.14237548226794
H         7.51060959278425    3.05667071021374   -0.96410655404115
C         8.74316696551205    4.68325476599157   -0.33634921071156
C         9.06026119378180    5.54507152483825    0.70810165905266
H         9.80677636268333    6.31484700393510    0.58772982107330
C         8.41005509682100    5.43184450299492    1.92531415155714
H         8.66306510512958    6.11799946695541    2.72133318962270
O         9.31990343260989    4.70502506043818   -1.56733407626793
C        10.29065917437044    5.68552634921617   -1.84130541872776
H         9.88112364168225    6.69579961006806   -1.74073289475315
H        10.59180035201571    5.52098189245854   -2.87475180030191
H        11.16450991954889    5.58041397850739   -1.18963582933787
C         6.97218786406555    5.74282841972050    4.61751962545988
C         8.19100201538636    5.92928764963614    5.26930323405970
H         8.93105388059948    5.14123388827368    5.25755742191631
C         8.44580454380582    7.10929935480108    5.92945476070458
H         9.38037719836225    7.27168339641615    6.44366373518295
C         7.49346043837186    8.13330686685601    5.94839832696911
C         6.27858457817812    7.95246374113268    5.29526836708116
H         5.52458811010017    8.72164708861935    5.28948641487198
C         6.02644852049881    6.76023142588765    4.64283182606499
H         5.06520711276536    6.62333263153907    4.13360625304805
O         7.84934192007596    9.25656585047608    6.62608028227160
C         6.92420935953310   10.31383572928407    6.70700982649065
H         6.68243524660096   10.71381659248448    5.71731094434593
H         7.41104146323877   11.08685968688254    7.29953051054495
H         6.00259607451176   10.00011725658377    7.20695949302138
C         7.45703861059922    2.93621598819361    4.51421214470037
C         7.45099978736246    2.86769182043275    5.90324788223229
H         6.92667108688586    3.61911275106330    6.47576915437270
C         8.09198690751098    1.83816606577360    6.56727075575608
H         8.06410148788225    1.81682490870510    7.64542753343095
C         8.75011465472427    0.84807992877636    5.84355265206143
C         8.75192601120447    0.91246438786152    4.44750945364922
H         9.25971033308571    0.13339372212909    3.90097852287235
C         8.10809461559551    1.93752187707234    3.79190858153629
H         8.11260343811450    1.96649576178523    2.71193133785046
O         9.40568166160090   -0.21188724986534    6.38824480889976
C         9.39056142746706   -0.36582691441970    7.78679302893426
H         9.88912994047898    0.46903647645685    8.28994770073230
H         9.93927507170785   -1.28471914402863    7.98781610263607
H         8.36921496966381   -0.46180333823767    8.16940465328101

