82
CSD_code = SUXGIC | q = 0 | S = 0 | Stoichiometry = C40H36Cl2OP2Pd | MND = 4
C        10.49036151431368   -1.92174611199625   10.51635111355916
C         9.48348686064872   -2.61068109895768   11.18125599098518
H         8.60533349063290   -2.08568821923730   11.53138846118646
C         9.60092173334529   -3.97445130941556   11.38943599731831
H         8.81459182797726   -4.50599277894167   11.90560263457619
C        10.71368751598990   -4.65658606126964   10.92917453763206
H        10.79749043463027   -5.72182341071633   11.08703144182492
C        11.71377193993929   -3.97512333772598   10.25277686996246
H        12.57473721094869   -4.50897483131247    9.87860362368199
C        11.60280900421191   -2.61491229528842   10.04046226156892
H        12.36337894843136   -2.08187015683580    9.48691499562693
C         8.98943127245814    0.38843764125052   11.21501808777605
C         7.76371073626896    0.61435225756412   10.59484348527451
H         7.67561980182245    0.41683430123709    9.52068858000746
C         6.68428301318998    1.06318858497845   11.33198874327207
H         5.73336786148347    1.24293726721802   10.85230732372962
C         6.82609707637074    1.28581028746477   12.69269815817428
H         5.98779320895230    1.64891583177884   13.26845958998693
C         8.03472979904302    1.03052719180178   13.31914942518646
H         8.13541928531887    1.18690266885531   14.38315220435108
C         9.11559694219885    0.57541986385570   12.58555411966758
H        10.05781456033793    0.35989195481382   13.07053280908266
C        11.85069973015698    0.53014776025795   10.96609295558040
C        12.05780081748009    1.89608217034328   10.74719322407014
C        13.26096299476952    2.51253957158148   11.07478314240357
C        14.21267961166043    1.75009618073905   11.74084684211138
H        15.15002010169483    2.21336214501684   12.01396021951240
C        13.99598745087792    0.41572041812240   12.05723191425764
C        12.81971198445955   -0.19762447286972   11.64103041508779
H        12.66583191117191   -1.24791808272958   11.84133531041017
C        13.53289017430222    3.93179933184410   10.67950074157332
H        14.15794162726881    4.42963965945405   11.41752766098221
H        12.60973292267654    4.49129712417872   10.54722816745054
H        14.05946060095589    3.94327284849068    9.72451594246081
C        15.03318916174508   -0.38039269680379   12.78898535420272
H        15.55138129130567   -1.04177899959779   12.09510586020819
H        14.57187928420536   -0.99972214388532   13.55531689041370
H        15.76836618392011    0.27044103393901   13.25469358582977
C        10.05404268460782    3.26794103779859   10.67151894983838
C         9.94391747270343    3.69465302215815   11.99260649773763
C         8.79575809783387    4.40669612166962   12.32645572203634
H         8.68504606458452    4.74311346692997   13.34772214356416
C         7.78840058663528    4.70348690965608   11.41977663172879
C         7.92280355725979    4.26434795620788   10.11176484629771
H         7.15316641677848    4.47483914841109    9.38373512890216
C         9.04827148114238    3.55080526054040    9.73930091462199
C         6.58104013502533    5.47508641421537   11.86004613630563
H         6.10404398348339    4.98235317772969   12.70573647488831
H         5.85983079327107    5.55826572427892   11.05159039356815
H         6.86478030966182    6.47828103110542   12.17610850763877
C        10.96889956716166    3.44392634163383   13.06130717510031
H        11.28168753891933    2.40363805294642   13.08647358064236
H        10.55288322654205    3.70180545148590   14.03239021393648
H        11.85508002427986    4.05621374386312   12.90032880341295
C        10.84903925035532    3.58868233972019    7.57388780875437
C        10.95086193224625    4.97429424030586    7.64335360622909
H        10.10795274799115    5.55520464656039    7.99476455615482
C        12.12863167141994    5.59889863828727    7.27336659056677
H        12.20546144740829    6.67566994663703    7.32163938947484
C        13.21005755548902    4.84496234250157    6.84646738132739
H        14.12789763969164    5.33608315977285    6.55728521559634
C        13.11898899025024    3.46247457141508    6.79778323604438
H        13.96720702761754    2.87624815779202    6.47558410143442
C        11.94398350398488    2.83218394840525    7.16508138672259
H        11.87292730144747    1.73610131631966    7.13787359739697
C         7.96821613341322    3.37758364438528    7.14728562334897
C         6.70043353483438    2.87810064897222    7.43529853040385
H         6.58863639281332    2.14732480759780    8.22718785528014
C         5.60281994971373    3.29686419139848    6.70830482526465
H         4.62203131870133    2.90241680976579    6.93316770102645
C         5.76407276893766    4.21447213312176    5.68244412046667
H         4.90830346081689    4.53932895366368    5.10908238401063
C         7.02560587105181    4.69906946968642    5.38088706720130
H         7.15432060189807    5.39931986679812    4.56864862242935
C         8.12804457678831    4.28163766666684    6.10582331454337
H         9.11389749984234    4.63982714821744    5.84622693128930
Cl        9.34853641841280    1.08595332659941    5.89026269644171
Cl       10.56829096094599   -1.54672456801663    7.36203499201181
O        11.06222200578943    2.55878371987894   10.06737363055837
P        10.36269073887139   -0.14866363751719   10.14482879046569
P         9.34740117685259    2.72739114320369    8.13622513153462
Pd        9.89174569531084    0.52092842007130    8.02533011283168

