28
CSD_code = SUXLON | q = 0 | S = 0 | Stoichiometry = C13H9ClN2O2Ru | MND = 5
Ru       -0.90825412943099    2.72294099905349   10.69367846672916
Cl       -0.59532023704977    2.33609937836313    8.53356163123280
O         0.50402579147286    4.08569491546852   10.55489635135624
O        -1.33969942986482    0.77269743276725   10.82263303751938
N        -2.35453425659849    3.49519492784503   10.79025954671637
N        -0.18591741225592    2.63294691592510   12.58523290750517
C         0.93738676313040    4.49722020623987   11.72341026004868
C         1.73338156980788    5.64211379921971   11.85339367410674
H         1.95756811209799    6.21659483688498   10.96892038598498
C         2.21291101168669    5.99609078966037   13.09520313374638
H         2.82989660616576    6.87572215553673   13.19627929686407
C         1.91450966892146    5.23346044627351   14.22083044909735
H         2.29714590836869    5.52788200204884   15.18547457516319
C         1.13035808196176    4.10370854636008   14.11845905900469
H         0.90999025784104    3.52903739630006   15.00502447123454
C         0.62404420098803    3.73087421288294   12.87247284372473
C        -0.56658516311689    1.76101935343872   13.47559812049970
H        -0.26462250225613    1.91863512638884   14.50973557621390
C        -1.32862677342812    0.59445660433327   13.22915566442695
C        -1.72266587728401   -0.19543743463854   14.33309471057814
H        -1.45274516526638    0.13962751198924   15.32419641325783
C        -2.43347763401685   -1.35168549640509   14.16764081800368
H        -2.73141553625549   -1.93664880880197   15.02340582650976
C        -2.77339447336819   -1.77755055329653   12.87773927527339
H        -3.33304854465929   -2.69147975348574   12.74759727086414
C        -2.40412964241381   -1.04607990234679   11.78054852885037
H        -2.65550127075467   -1.35815290867507   10.77877062779046
C        -1.67827992442267    0.15991730067028   11.91238707769718

