95
CSD_code = SUXQOR | q = 0 | S = 0 | Stoichiometry = C47H39Cl2N3OP2Ru | MND = 6
Ru        3.61321731539557    0.36299683545672    5.21521087535708
Cl        5.39857239629593   -1.01185332400106    6.17989700614995
Cl        2.08678040193213   -0.55301502348814    6.81772393076466
P         3.80377586331613    2.06595231008804    6.77420382868399
P         3.53278575289475   -1.40913975096410    3.71904603886807
O         4.34769196535723    2.86122931521900    1.98623829963181
N         2.16520574543507    1.28769890087794    4.28385497007319
N         4.78506089833668    1.53256504407230    3.82646481880035
N         6.87950113702621    0.73639820113971    4.34371583251421
C         0.86101944788401    1.23214131117596    4.57162308318945
C        -0.11076270518729    1.81004422331792    3.78306009935070
C         0.25715648893893    2.48506542081710    2.62538766655552
C         1.60490848822636    2.58272732278250    2.34404942023272
C         2.52806440585322    1.98867215759993    3.19647618752535
C         3.97473584517636    2.18508772248453    2.93768589037588
C         6.11677489707931    1.68553611626261    3.75226605396920
C         8.21593863147098    0.75002060555385    4.34141960138840
C         8.91029354454291    1.74834575297969    3.71934081156551
C         8.17301709868746    2.78090457415466    3.11953133850701
C         6.80574465004089    2.75829626368730    3.13279995827797
C         5.30187128269632    3.11203487373065    6.68192311053111
C         6.49622948921664    2.41220147565924    6.84621323480427
C         7.70876765240113    3.07126579934790    6.79850577489377
C         7.74148478962294    4.44055722757070    6.58750527161856
C         6.55754393083579    5.14513704632584    6.45672514391738
C         5.33911700776060    4.48910355753082    6.51148155412703
C         2.39581425800572    3.19357193102012    6.56473906327435
C         2.34779655468663    4.04862855582606    5.46381915707271
C         1.20844700410323    4.78672070977614    5.20427140384848
C         0.09889531359042    4.66392868729599    6.02522890825188
C         0.12758398529236    3.79046665461142    7.09963466906522
C         1.26614544759497    3.05162502924477    7.36602170205930
C         3.85629501263541    1.80404889269549    8.57721509770649
C         3.71843878881175    2.90973124808699    9.41447063650467
C         3.80895441066820    2.75388879605673   10.78320726568636
C         4.04867851057447    1.49988265884854   11.32535633102983
C         4.20503868111540    0.40464256403117   10.49472926340564
C         4.11447533918547    0.55392371802577    9.12115020249218
C         4.99367329251294   -1.35039536083855    2.63333729372178
C         5.07081183480123   -0.41955275210860    1.59919777090428
C         6.24977989977658   -0.25026364098612    0.89675912395365
C         7.36751597653151   -1.00078415975008    1.22304356648563
C         7.30191120833963   -1.92239524109253    2.25533075431393
C         6.12605385346508   -2.09290392380118    2.96291334855041
C         2.07224406670435   -1.48745184954124    2.63015262260186
C         2.06719099752593   -1.55971808436751    1.24399019364609
C         0.86213232587877   -1.61795880367912    0.56433059797120
C        -0.33610835771644   -1.61668611787643    1.25754773590025
C        -0.33424718609095   -1.58001572063638    2.64309143015754
C         0.86414766220547   -1.51802468609060    3.32599302139163
C         3.51128677016200   -3.15785652209367    4.23595883196463
C         3.25968221549860   -3.52458915291187    5.55031447561825
C         3.20766731610981   -4.86560018589403    5.89271434074710
C         3.39685235499656   -5.83854956296870    4.92774249307082
C         3.63106773310693   -5.47367439791472    3.60995513954844
C         3.68437712393775   -4.13919990860497    3.26126382305323
H         0.59271255500901    0.70571752819233    5.47849106140256
H        -1.14572984409999    1.72598341353853    4.07356147889079
H        -0.48205822882738    2.92953174359354    1.97802603778572
H         1.98237389115843    3.11456043786343    1.48411327247493
H         6.38274526060386    0.00227807954402    4.91930503599947
H         8.69340220189831   -0.06808939461285    4.85849906628141
H         9.98688787120845    1.75186264776903    3.70562836428719
H         8.68929728222000    3.60395604444298    2.64917403304621
H         6.23470968017318    3.54572956675877    2.67226577342089
H         6.45661738560201    1.34382591479525    7.02318251703770
H         8.62888301161659    2.52008132991986    6.92858943812590
H         8.68751393559351    4.95961835545271    6.54018412809313
H         6.57933710535638    6.21639477372302    6.31683165822334
H         4.42493259825329    5.05887462219200    6.43296770423497
H         3.20081269848875    4.12293089357037    4.80076097058986
H         1.18293352775831    5.45092911488911    4.35231581015231
H        -0.79082197972736    5.24037881490051    5.81866606191240
H        -0.74323472559834    3.67816097210368    7.72877546245861
H         1.28284329318197    2.35083680068634    8.18932721465896
H         3.53594872370686    3.88728316528745    8.98700204486754
H         3.69421932286833    3.61137022978389   11.43086360034794
H         4.11561780432226    1.38145588782142   12.39718394839524
H         4.39707123347532   -0.57154759748157   10.91472953896352
H         4.23049560024184   -0.30363583137360    8.47528646399674
H         4.21060366069906    0.18744112402937    1.35141373964793
H         6.29596963404765    0.47886326957172    0.10130810355915
H         8.28881132438435   -0.86368073717450    0.67595829019446
H         8.17276997484582   -2.50673106184649    2.51483967706564
H         6.08280277624148   -2.79435124105967    3.78438973384440
H         2.99435359102538   -1.58257640991060    0.69006899923813
H         0.86146521162671   -1.66928918126910   -0.51509347600865
H        -1.27100868172440   -1.65736882560109    0.71797969914150
H        -1.26635081617794   -1.60141811993341    3.18837292875260
H         0.88594342284889   -1.50770596423201    4.40979904642886
H         3.09835296149949   -2.76530832369319    6.30255933003557
H         3.01746945403721   -5.14759128491527    6.91769996927733
H         3.35780057950083   -6.88422913443471    5.19692827448289
H         3.76980958025839   -6.23329500277632    2.85386354020987
H         3.86379830700433   -3.84935995442752    2.23395139279298

