113
CSD_code = SUXQUY | q = 0 | S = 0 | Stoichiometry = C60H44HfO8 | MND = 8
C         5.95174609139787    4.49128118674396    1.62842353724942
C         7.31453458138643    4.25720846106798    1.83286006187824
H         7.91969566212421    3.83458315882769    1.05056380552169
C         7.92038892613289    4.62680685427416    3.04426595666061
C         4.07183254999027    8.20534515043170    5.67856688169624
H         3.60316810615938    8.98593091231331    6.24876645993648
C         3.32233022063650    7.49402835967967    4.72476503624729
C         5.30326684642871    5.67992555911435    8.05962395297525
H         5.42951856062836    6.17249684705985    9.00612044943768
C         5.39218273341626    7.82927650656569    5.94278780760199
C         4.16111488046321    2.16495501771916    2.79314338396746
H         3.90076417334510    1.40641577097117    2.07631724451944
C         4.07432047693792    5.73238318635833    7.39424232259360
C         6.39905661681203    5.04890731104823    7.44597264005330
C         5.44534681827409    2.21034762622420    3.34456960760152
C         3.18091607740656    3.07532092853777    3.21719423221608
C         5.30221162768667    4.09547686237241    0.34792955997014
C         4.06649865208434    4.66744769560206    0.04575043432191
H         3.65120403315299    5.38117029622583    0.74189008069124
C         3.39289414282495    4.32363922405884   -1.11035657545450
H         2.43739381318417    4.77588461861390   -1.33216887725833
C         3.93988072186572    3.39281158130012   -1.97910575500361
H         3.41454804440625    3.11733771729450   -2.88199525323756
C         5.16276087668273    2.81208262903865   -1.68375126855528
H         5.58753514574994    2.08075847350236   -2.35633859994934
C         5.84405861384704    3.16092557107558   -0.53135049909198
H         6.78761099455264    2.68677343069210   -0.31112618823093
C         9.38804863061145    4.41654351027024    3.19834642579281
C        10.04983261194244    3.32344737960774    2.64739315903146
H         9.49856890121094    2.58524861517559    2.08550763949891
C        11.40856353349197    3.15996996799147    2.85010293855063
H        11.91371140273375    2.30316895146505    2.42824024113902
C        12.12287660433710    4.08800049463472    3.59019082398043
H        13.18489611476492    3.95841489761357    3.74014812702093
C        11.47120060452137    5.18064163824678    4.13902991719795
H        12.02549089076801    5.90926789763957    4.71310192111059
C        10.11127623494544    5.33898611867719    3.95137508564239
H         9.58783476429084    6.18397895467942    4.37318620854051
C         1.87061391296559    7.78147555102072    4.56649231945329
C         1.08731043145084    6.77198149953868    4.00694112860092
H         1.57872809443115    5.85958605041319    3.70232220232754
C        -0.27608140147986    6.93488438383059    3.86216688670231
H        -0.86969435882123    6.14176321492388    3.43062386063593
C        -0.87700546231775    8.11616511214561    4.26704973663158
H        -1.94365112698157    8.24928698848970    4.15707686614703
C        -0.10483053064232    9.13212913518445    4.80690955971613
H        -0.57105714544282   10.05843376074932    5.11033345371511
C         1.26053081712897    8.97009986707837    4.95766504636590
H         1.84741651966860    9.78066604673528    5.36112797185534
C         6.18735657184078    8.50800306080040    7.00499928958883
C         5.64515655105494    9.37792810590515    7.94827771022362
H         4.59670534143539    9.62990636498702    7.92528414935664
C         6.44388141342540    9.91418156369755    8.94243973560729
H         6.01124084550666   10.58343951258360    9.67243995606561
C         7.79035127033818    9.59578488267366    9.01182253119257
H         8.40556568610520   10.01385314690742    9.79499392310503
C         8.34290412151737    8.74184780194321    8.07132500063593
H         9.39157133144820    8.48775765638002    8.11804296884603
C         7.54812866870333    8.20752186231075    7.07743140051840
H         7.95947449050986    7.53682675892097    6.33863025463156
C         2.91634578709265    6.46473004002842    7.97969551959522
C         1.66087098426864    6.24002638002062    7.41458755225651
H         1.58480493526217    5.51637401260114    6.61751909207719
C         0.55035994976483    6.93199980062035    7.85421928458380
H        -0.41226886435117    6.75268354212084    7.39860092599279
C         0.67599179597956    7.86292332016812    8.87229377326108
H        -0.18796512283648    8.41277039193355    9.21564083701707
C         1.91545508588263    8.08699827036681    9.44915729695096
H         2.01555791226827    8.81218046828000   10.24410792701415
C         3.02965664119939    7.39410088271138    9.01082373314580
H         3.98834222486709    7.59911475684168    9.46070567020038
C         7.74222305561676    5.11682968677080    8.08406160326219
C         7.95517087354794    5.39575036621998    9.43139062784733
H         7.12083915728402    5.53049476979719   10.10207553191025
C         9.24331167218265    5.47824071914605    9.92860434815592
H         9.40042956292588    5.69296719333735   10.97583160984409
C        10.33197965311772    5.28492393581752    9.09353846214233
H        11.33500853976220    5.35541679127565    9.48918891401793
C        10.12934784865784    4.99322637919787    7.75397253087610
H        10.97276349849098    4.83121867329851    7.09818611288330
C         8.84461013418129    4.90525222918934    7.25580353462034
H         8.66095883795163    4.68242058417229    6.21491609401509
C         6.49241103992607    1.25348802768475    2.89048528619289
C         7.60064299535264    1.06453497806111    3.71570778200884
H         7.63739431551307    1.60265884689646    4.65131538127625
C         8.62387232544175    0.21576996083080    3.33991217321510
H         9.47582706981751    0.07759269072405    3.98936448874222
C         8.56066080654653   -0.44917763779320    2.12571324495149
H         9.36132131912473   -1.10924941291861    1.82515494573552
C         7.46832522592800   -0.26072257249658    1.29426242608338
H         7.42100961188300   -0.77219535288754    0.34352903111547
C         6.43730754828035    0.58069849534217    1.67218564926034
H         5.60239877969399    0.72777959349056    1.00504126484184
C         1.80484204536521    2.95121855490472    2.65800181060776
C         1.56499644591955    2.58177158868936    1.33805040685434
H         2.39243466061036    2.37585625931282    0.67652724971927
C         0.26835514229191    2.51477938259435    0.86045178812080
H         0.09017402725286    2.23788962804213   -0.16853643348542
C        -0.80053620993915    2.80062014708537    1.69413681926562
H        -1.81133292914696    2.74062248599623    1.31754062088625
C        -0.56940027004598    3.16547903833846    3.01061468783377
H        -1.40079069677004    3.38398391933089    3.66545156827956
C         0.72530316518520    3.24884163719015    3.48676325715386
H         0.92291752710735    3.53331902689069    4.50952491415799
O         5.21311424186889    5.06613832589732    2.48899387552428
O         3.81332148661357    6.57703019321256    4.00659700641968
O         5.97442892268934    6.89185352937906    5.30811577556533
O         3.88384309417113    5.17560203213439    6.26630804318518
O         6.31265747093253    4.43966693518784    6.34076290310571
O         5.77523494082039    3.02881456772404    4.25924678352548
O         3.37804161075706    3.97557123224414    4.08102761997854
O         7.30672353398050    5.16566044576320    4.00710857914648
Hf        5.20601026665895    5.03984856928163    4.59904119126749

