57
CSD_code = SUXTEL | q = 1 | S = 0 | Stoichiometry = C26H23N3NiO2PS(1+) | MND = 4
Ni        9.47224793290519    7.38527089634522    8.63935265610725
S         9.56276292467912    5.25767522473381    9.09122245857884
P         7.95554954659696    7.18792448419349    7.08524147309843
O         9.43393478267805    9.18288859042600    8.20694854727055
O         8.87737512611370   11.58520550006678    7.25230071987503
N        10.77830738916157    7.67029492901245   10.03519153161196
N        11.20727246410084    6.53789793280609   10.68080733551399
N        11.11111123435614    4.23849927935354   10.96850010297223
C        10.03903896387534   10.17521716617754    8.78906757060230
C         9.74664354648214   11.47912229953097    8.28234982279025
C        10.34079642035887   12.58933313617621    8.82924173084444
H        10.09500893065938   13.55722829970757    8.42336892299016
C        11.24510255711924   12.46593199205614    9.89211492273244
H        11.69653481934301   13.35408504804489   10.30326792626350
C        11.55066510570314   11.23749242205734   10.40062711775866
H        12.24605910169841   11.13828642365727   11.21975797579708
C        10.95780868162625   10.06591922908395    9.86810110607183
C        11.28037240940393    8.81012067569617   10.41867408182512
H        12.00688002829907    8.80229720562687   11.23287473297596
C        10.70575250921726    5.34560624305981   10.33509887929749
C         6.77783816134685    5.80549096226177    7.08896598640422
C         7.26534102288049    4.53127346772132    6.80181046621509
H         8.31478089965630    4.39993094943744    6.57546785914345
C         6.40701558922695    3.44918826547674    6.79623336809626
H         6.78469846138358    2.46448284037750    6.56700969275769
C         5.06242726256931    3.62883297577218    7.08472859331847
H         4.39337297956204    2.78231915992974    7.08276795291037
C         4.57741211452735    4.89326694942983    7.37592619345301
H         3.53064467543159    5.03306885434699    7.59829388743118
C         5.43050652197277    5.98309517626030    7.38402653435861
H         5.04815385067683    6.96827920331307    7.60799394472252
C         8.88045831543521    6.96132095906461    5.54175800626732
C         8.25073183346381    6.60570241003237    4.35206996072931
H         7.18226702383700    6.44253554207664    4.33437048206811
C         9.00527170794465    6.45335309872819    3.20278189080647
H         8.52202559425429    6.18139475240779    2.27680231798030
C        10.37840833213675    6.64446772476319    3.23774131900081
H        10.95979393814894    6.52273274445600    2.33695852674017
C        11.00890441134311    6.98308307719785    4.42511188349691
H        12.07888231549834    7.12194104658811    4.44905423107492
C        10.26020591677704    7.13992056261389    5.57673130087717
H        10.73518303358345    7.40184085320204    6.52686434264881
C         6.94514395718467    8.68395405866235    6.90667338614135
C         6.34492731814635    9.18290723098403    8.06265946766300
H         6.50932295189846    8.67134884963479    9.00417285867091
C         5.57125875785106   10.32590978654248    8.00265023233873
H         5.10757117172298   10.71252042281875    8.89701203369863
C         5.39991113488039   10.98001392606920    6.79143004213357
H         4.80003422101698   11.87522633033262    6.74448433270079
C         6.00501568029225   10.49287661973870    5.64488109699884
H         5.87666280889290   11.00818918513795    4.70610944342323
C         6.78409431306734    9.34816065652683    5.69646469554047
H         7.26519510481497    8.97742343878138    4.80356648171803
H         8.58249836318153   10.68967028861864    7.02034893150577
H        11.89773029261783    6.64007742424436   11.42464530399456
H        10.71831827246050    3.35429555782215   10.69466440128848
H        11.77936721594181    4.25450767079653   11.72045893669478

