69
CSD_code = SUXVAI | q = 1 | S = 0 | Stoichiometry = C22H28B2CoN12S4(1+) | MND = 6
Co        8.83193520327049    9.83033669572641   10.04344932203364
S         7.23437893437886    8.31383654779436    9.34284665407829
S        10.82525557729712    8.61590648413339    9.53991709944523
S         8.97409031917898   10.21913708535821    7.74710905810554
S         7.00846012274110   11.26864868435552   10.34029138362383
N         8.87279749924089    6.26482588320716   10.14754687674802
N         8.14779598192456    6.13683718532685    8.08414097887191
N        10.69834202399000    6.95926161511745   11.70739894658513
N        12.66408727159651    7.85849575968763   11.34940851949051
N         8.42859570123923    7.81637767668745   12.19878874029786
N         8.55251017425034    9.11100220760100   11.84917435731814
N        10.44605457552033   12.51192240245172    7.96673473081486
N        11.27737717233003   11.00421954334486    6.61286056209100
N         8.08973460555356   13.08302259436258    8.57764590585362
N         5.98266593109955   12.57610089107260    8.25141929469735
N         9.92007722220625   12.59400903215972   10.38168091875806
N         9.97572916597883   11.28592945429255   10.68539749738289
C         8.12875617924308    6.87486114343451    9.21382315678940
C         9.37699286043578    5.12389456119099    9.58270898857796
H        10.01248738489219    4.46417536566925   10.13507866610567
C         8.92616726303515    5.03693678929622    8.30816287469385
H         9.09369473576095    4.29300791343335    7.55756397649341
C         7.46349192290481    6.47574863101991    6.86978368978830
H         7.97607003371660    6.01973462491075    6.02550401271687
H         7.45765273410400    7.56155347897720    6.76197267493049
H         6.43029388952180    6.12478622429202    6.89885713816984
C        11.38585009908784    7.79529172002587   10.91614786869829
C        11.55900141765218    6.49827199466675   12.66438942100243
H        11.23313793332462    5.81909179164626   13.42342560471069
C        12.77976648398332    7.04334443943726   12.44365538039551
H        13.70571346633340    6.92038761068171   12.96523977520484
C        13.71134538399631    8.63183284131598   10.74636518396063
H        14.38524011374426    9.00069507228845   11.51746191377834
H        13.26269865913695    9.46977410507327   10.21223413644522
H        14.27660075236470    8.02655395937120   10.03497866533894
C         7.80994120292261    7.73974689922521   13.38793936052762
H         7.61526545807165    6.79316662628206   13.84781875911246
C         7.52305558354198    9.01225228183234   13.82535828072874
H         7.03251830187189    9.30446735549731   14.72946726256622
C         8.01184786831475    9.83991190830276   12.82344558969926
H         7.99160683547460   10.91113392209876   12.78384750886961
C        10.26961432247501   11.28077532215601    7.46566265767633
C        11.59750245905469   13.01243222097116    7.42670445417302
H        11.95552093232289   13.98663650161102    7.68521665850200
C        12.11257085422528   12.08642990740218    6.58088896643202
H        12.98944376864640   12.11176137171199    5.96814302905776
C        11.42717683987198    9.77510448973948    5.88868058496581
H        12.47328253658448    9.63357617193226    5.62691185360184
H        10.82386825775026    9.78802226043955    4.97896905641277
H        11.08790158912010    8.95377556162939    6.52155888719368
C         7.06799593100702   12.33127682693141    9.01470533932605
C         7.63172622838560   13.80300177633351    7.50649747589728
H         8.27098558509787   14.47620572172353    6.97547871503664
C         6.32671359815468   13.49886592415634    7.30624765515105
H         5.62928709498544   13.85999273911335    6.57953535961654
C         4.69860428442070   11.95929938747065    8.42120145820204
H         4.18432679428212   11.92302931199808    7.46313165544290
H         4.09328130340948   12.51938737307863    9.13649642303393
H         4.84124375443950   10.94850732638748    8.80599281848857
C        10.57888245020797   13.29270673928174   11.31918584912986
H        10.65509886523957   14.35862979159512   11.26276586783094
C        11.07950662000946   12.41971851359181   12.25861811650791
H        11.64923551477485   12.64841961559953   13.13437612643150
C        10.67508745082069   11.16847167796545   11.81236215101162
H        10.86658425924198   10.21310173174915   12.26164551020757
B         9.18568085020245    6.61954751345935   11.61441211256396
H         8.97364801208963    5.66434801110245   12.28120002020241
B         9.55908269482419   13.21588028694721    9.02453599407097
H         9.83596310315448   14.36660492130747    9.04833446833868

