49
CSD_code = SUXWAL | q = 0 | S = 0 | Stoichiometry = C10H28B9IrS | MND = 9
S         0.87333651526198    2.10226741076619    4.63028248792943
C         1.54302075464841   -1.57462175790918    1.96855771317731
Ir        2.97391337992394    0.28706423791354    2.65443805240906
B         0.83609900816742   -0.13477617935465    2.39846704006740
H         0.31014638927674    0.57395927918250    1.60826005516800
B        -0.05397223679921   -1.71637836621408    2.46268330377557
H        -0.93820029496004   -1.86338554110014    1.70088622555188
B         1.10658611457243   -2.89483034135816    2.99528624634978
H         1.13568702810477   -3.97939162531975    2.53963563614418
B         2.61885612600422   -1.94363954057549    3.16115892658089
H         3.59768760962261   -2.53456280109692    2.87785549760384
B         1.18909401341736    0.27590650346647    4.05953133342900
C        -0.21982095193347   -0.59636921085185    3.73168607851164
B        -0.06163058493671   -2.26080376786105    4.13264997201052
H        -1.00142656040796   -2.82437976660705    4.56509634086581
B         1.67248659835681   -2.42761235971362    4.60070300608342
H         2.04191108974399   -3.24049805384043    5.37139937988962
B         2.42025492983890   -0.80612416479737    4.56526265974830
H         3.22995931034293   -0.60463073040625    5.40796131116647
B         0.71704463245525   -1.04296716686526    5.10970145050156
H         0.28344884433389   -0.81628872178124    6.18665861167391
C         1.84510822134886   -1.88944127352592    0.50999792798688
H         1.68854688213559   -2.94673261507355    0.29679916335213
H         2.87660926756152   -1.65158471393629    0.26001660145651
H         1.19683416051527   -1.32100867186072   -0.15723755065163
C        -1.57654094628744    0.06716999060153    3.88542676557419
H        -2.33237495791586   -0.45831772412370    3.30166746114042
H        -1.56340632264087    1.10445088592721    3.54201243025805
H        -1.91006527361652    0.05374397603916    4.92459164008659
C         0.02928748305348    2.08146110769990    6.26059896620062
H         0.10435019634570    3.07487487441848    6.69150320316395
H         0.49588607843609    1.34768595223867    6.90877353029598
H        -1.01438059838385    1.83285009263347    6.10678412006413
C         2.50335909144141    2.54873635387223    5.29121177860823
H         2.43547107973053    3.52580880747987    5.76002573918254
H         3.19663896091311    2.56975726705762    4.45904628812435
H         2.82191322738976    1.79606181919041    6.00426384449793
C         4.89132319163006    0.93705781884298    3.36262944672050
H         5.20763869191336    1.93246590918918    3.06809528953279
H         5.03220192291420    0.73625966305814    4.41603485444839
C         5.07962099330046   -0.12102021352184    2.45202991985201
H         5.33047331781081   -1.09489634403776    2.84245691066654
H         5.51637309573951    0.08225430666875    1.48306474524237
C         3.12294010309006    1.37097963601894    0.78642938642291
H         4.11508133887128    1.47835403638788    0.37034098000409
H         2.39915887623992    0.96921187829872    0.09331133226226
C         2.69657983271965    2.26892785640322    1.77317638381623
H         1.65757524835349    2.56556067605889    1.80739760047633
H         3.37281512235677    3.04959131231837    2.09748991257605

