60
CSD_code = SUXXUE | q = 0 | S = 0 | Stoichiometry = C29H24FMnO3P2 | MND = 6
Mn        5.09527229551396   15.06485353723767    5.66741897126789
P         4.69328250218803   14.30771514771312    3.53906052506350
P         6.84719336337514   13.60732856952138    5.60376786410831
O         3.02244960332277   17.11670765541926    5.35995064204923
O         3.39563692773905   13.30418739251281    7.26716513673393
O         5.87583948018499   16.22151526764748    8.24314711445919
F         6.40105356038973   15.92841306100912    4.54923186113581
C         3.84991607747250   16.32588643455998    5.46860801320008
C         4.03777244956411   13.99316560074463    6.59948204350334
C         5.61519812856518   15.79526777322297    7.20529537143926
C         5.99165219422666   13.08104966940408    3.03494400902980
H         5.55386357943308   12.10099224057128    3.26344967163746
H         6.17421441778192   13.14016835111351    1.95696039529168
C         7.26962335938889   13.28631480326471    3.83783575090965
H         7.80223057487601   14.18340527326502    3.50506665256406
H         7.95356146066797   12.43325844566685    3.76700845484050
C         4.73724530847012   15.59301350196001    2.25740955724665
C         3.55736345444603   16.29258429682424    2.01534938419339
H         2.66190377627817   16.03586390211757    2.56755522831631
C         3.53348127724576   17.30833720476803    1.07954501136563
H         2.61652033700043   17.84853859811662    0.89512248078246
C         4.68661192712998   17.63761251172570    0.38476728990281
H         4.66871596628545   18.43366924992950   -0.34503237844059
C         5.86435333631237   16.95431975551362    0.63489770194742
H         6.76693191451275   17.22039248295936    0.10375893626708
C         5.89511593559368   15.93634218561000    1.57138556168433
H         6.82553259421669   15.42894310949745    1.77957050708982
C         3.18585012309094   13.42661599177063    3.00938459731677
C         2.10470123605670   13.33743037954690    3.87660055768090
H         2.17827207699076   13.78197741188317    4.86162212972938
C         0.94419744229467   12.69478626280003    3.48088151415629
H         0.10737034819692   12.62876692505584    4.16021871487078
C         0.85874523734454   12.14072697790528    2.21520654175037
H        -0.04535258971621   11.63829340120371    1.90466760862450
C         1.93105575001018   12.23689145729797    1.34123465984532
H         1.85999922798990   11.81258752774931    0.35019658777018
C         3.08957890251731   12.87992883102616    1.73256193646446
H         3.91863029936878   12.96942376533976    1.04367927626713
C         8.47871560585851   14.08294109067152    6.24823484901219
C         8.78079862258356   15.42347365837977    6.45775803814352
H         8.03792561827627   16.18085263290865    6.25030816402107
C        10.03358737749550   15.78460375540885    6.92118205193968
H        10.26442968695727   16.82674602539651    7.08507805339624
C        10.98659626923273   14.81329556542072    7.17747214083115
H        11.96277937832801   15.09603381205861    7.54320479346333
C        10.68868114245916   13.47597446459483    6.96683806103951
H        11.43185249128567   12.71769344796007    7.16702158261542
C         9.43985734712422   13.10753739650650    6.50359214454268
H         9.20446086288872   12.06290558559978    6.34933252464815
C         6.63139861098362   11.97273717957114    6.37557489467042
C         6.62058970760004   10.74904053181723    5.71946889277586
H         6.78488639124984   10.68994431778177    4.65265800441518
C         6.40476134665114    9.58383714795330    6.43654213577710
H         6.39847489650592    8.63361530549582    5.92194215854125
C         6.19621641277806    9.63204352730435    7.80377149535300
H         6.02632127689867    8.71942521187976    8.35544018037853
C         6.19954210848481   10.85187968741010    8.46374376875838
H         6.03139178674077   10.89220178730098    9.52954190684558
C         6.40956568376973   12.01516394375187    7.75168913015326
H         6.40598351952994   12.97927897135505    8.24972914660585

