75
CSD_code = SUXZUH | q = 1 | S = 0 | Stoichiometry = C38H26Cl2CoN6O2(1+) | MND = 6
Co        9.46803898343549   11.69782420233752    7.83813442445410
Cl       15.72807757926328   16.69846673044466   10.57345424058832
C         7.05142815548276   10.20702347566149    7.11054695734176
H         7.69955976169877    9.53270396336839    6.56721447825826
Cl       11.15581659005781    5.35146921621963   13.18146474141397
C         5.68422122484131    9.99813990494952    7.12646794639416
H         5.26383675234585    9.15714929969373    6.60066448591197
C         4.87898331373249   10.89302710789063    7.82007134536386
H         3.80750466104654   10.76963450400356    7.83566075151633
C         5.47322474142187   11.94555912603165    8.48763059400258
H         4.88354001138202   12.67188114112260    9.02289383052045
C         6.86291904797476   12.08044385128159    8.46052383688874
C         7.60153695922665   13.13730501692085    9.12205966348911
C         7.01508565455204   14.10119735555967   10.05630175280925
C         6.13633647735217   13.67734119642810   11.05425746364329
H         5.90069071046289   12.62795549514206   11.15300719652446
C         5.60819185660914   14.59043265170764   11.94738624863631
H         4.93581861687986   14.25310821947245   12.72131080393674
C         5.94450597983549   15.93158114665510   11.85592582905649
H         5.52669054276850   16.64164280072097   12.55256385883606
C         6.82739267942178   16.35616171157106   10.87622709486544
H         7.09806854977399   17.39864489398440   10.80799603157177
C         7.36737263243926   15.44859211975179    9.98495077295620
H         8.05816048694046   15.77950781001602    9.22536903997333
C        10.99315889582558   13.53119087114713    8.87060082262098
C        12.15251796005275   14.31026289925334    9.29427741225536
C        11.99001433643111   15.43656180231169   10.10499723503367
H        10.99717738155557   15.71512609081532   10.41957168695179
C        13.08868464412070   16.17041795235809   10.49777926655730
H        12.97272809752681   17.04038229550960   11.12438470775378
C        14.35982275065513   15.78269992876861   10.08441100496894
C        14.53430976219953   14.66063032134819    9.28121336167305
H        15.52596816327602   14.37088229756902    8.97204657465109
C        13.43362826934475   13.92861185052882    8.88984945017935
H        13.54780042628902   13.05352052897747    8.26858854854777
C        11.94894809933320    8.44143285188114    5.37661051207972
H        12.40169420394523    8.68571316101919    6.32428166812297
C        12.42921651173398    7.38881296033400    4.62071924649977
H        13.26205106254362    6.80640779277148    4.98356964767737
C        11.84570782975322    7.07998053703127    3.40249805970595
H        12.22158928376394    6.25672860721087    2.81504019383838
C        10.77150553376287    7.82495809481745    2.94240678933185
H        10.30449108956798    7.57728133304127    2.00137853813747
C        10.28996558387638    8.88483825718058    3.68752679713823
H         9.43212358371353    9.44237065352652    3.33927265175726
C        10.88250015390720    9.20857676011344    4.90932919832299
C        10.36350702792876   10.31522901122448    5.71703446944509
C        10.01777422096330   11.62105044957976    5.19270578479423
C        10.29026327917218   12.05015327420626    3.89195742405051
H        10.78247877594967   11.37869614012461    3.20744031475085
C         9.95121786073750   13.33428545732589    3.51443502160094
H        10.15893757068473   13.68387232407343    2.51535887164218
C         9.34739633645245   14.17061595527009    4.44518242684722
H         9.06300191786318   15.17822820356096    4.19158409117306
C         9.13220744641566   13.69443283641334    5.72572407675945
H         8.68475079907850   14.33045109929911    6.47739632110175
C        10.14350351440889    9.49206046247399    9.03719191432332
C        10.38983404894666    8.46989820469413   10.04933021968740
C        10.15543587125895    8.75493677936076   11.39642445779542
H         9.79363934988550    9.73451813209936   11.66929071144161
C        10.39039081016857    7.79871390901164   12.36121250107556
H        10.21387152061505    8.01357469176009   13.40310455996519
C        10.86251548791761    6.54618015130352   11.98297257486157
C        11.10061781405723    6.25050046411558   10.64389844039510
H        11.46791898738840    5.27453058738499   10.36916145024736
C        10.86570142841056    7.20872970180547    9.68136304814320
H        11.04340194056558    7.00074372659284    8.63849754836918
N         7.63212832788482   11.21815270359783    7.74902637622761
N         8.86501002597323   13.11166534766359    8.79504523158210
N         9.78862839388080   13.93813210794734    9.25103695649897
N         9.45737056975964   12.46093613990064    6.09923077518787
N        10.15934446527267   10.24922199353323    7.00493337046480
N        10.42744605778429    9.20858238113540    7.77091940969517
O        11.14635555943064   12.48926157816003    8.14452939839864
O         9.66594499902516   10.62916539794190    9.37237549071711

