45
CSD_code = SUYBOE | q = 0 | S = 0 | Stoichiometry = C19H19N3NiO3 | MND = 4
Ni        3.51660321504498   13.48589224975637    5.74474376904119
C         1.22602512665850   11.86334049097933    5.30688839161898
C        -0.01634097945353   11.37519628294043    5.81450930529721
H        -0.36670788204583   11.78685296511326    6.75018146976329
C        -0.72800143603640   10.43174772433094    5.15308603338069
H        -1.66582651750916   10.07552156254885    5.55570256347953
C        -0.26702057456096    9.87946003831905    3.93182127351550
C        -1.01154645456700    8.88611514266762    3.27319242275990
H        -1.94221593425567    8.56092272748278    3.71611722826270
C        -0.57036870957684    8.33749110875628    2.09896247284978
H        -1.14511874059265    7.57438911492258    1.59626854518572
C         0.64094429199279    8.77087402971868    1.55531548113071
H         0.99787786558528    8.33389513380519    0.63412684750941
C         1.38379893406295    9.74108346817897    2.17895968280049
H         2.31876614803461   10.03208930468429    1.72645086966334
C         0.95758827651395   10.33566439378846    3.38129179564835
C         1.69633489273598   11.35967464771001    4.06754460431120
C         2.87124166663115   11.92586042680885    3.50390973768390
H         3.16799951565397   11.58635870855995    2.51395865271928
C         4.67398001998976   13.45665042693997    3.28850760992686
H         5.09716324549859   12.75406313219364    2.55790246429790
C         5.74411629830916   13.91490005549914    4.32224682413850
C         4.18306019476082   14.72319917405975    2.54140019173047
H         5.06281164405163   15.12714145832470    2.02976114061181
C         3.12083219387528   14.37401359994056    1.50115110154920
H         2.21796658592961   13.99776524972384    1.97962009517385
H         3.48911090504522   13.62290317880833    0.80533075884925
H         2.85706936549560   15.26136083204518    0.93047293630309
C         3.65750374111152   15.77071694924997    3.52327789640324
H         3.14720908938155   16.56861963508618    2.98864263572744
H         4.47550732002201   16.20510629690124    4.09307417021237
H         2.94254904065293   15.32098840805189    4.23192183535487
N         2.45215810651460   13.97404671605968    8.34323861890612
H         1.66770007675491   13.43060808651650    7.99872540846005
C         3.88156797963513   15.16413455692241    9.48759207416365
H         4.36555848987919   15.71735821733697   10.26477138630502
C         4.36351219383116   14.91606350478306    8.20000016620637
H         5.28942729969954   15.21521494046679    7.74846036050219
N         3.59825809848768   12.84769655276572    4.04623706823808
N         3.48123879639374   14.19431953762187    7.52234141205370
C         2.65278336748152   14.54283103520092    9.53969003492766
H         1.93564517939666   14.47491404366487   10.33252528285938
O         1.84386519452190   12.74453777259700    6.02155761659367
O         5.27238454550763   14.01861731743791    5.50994856129948
O         6.87588832345600   14.17559980072810    3.98117120258596

