82
CSD_code = SUYCAQ | q = 0 | S = 0 | Stoichiometry = C34H42NS4Ta | MND = 5
Ta       35.37084320872034   18.90674945666563    9.61024668721690
S        36.42559578765292   18.67742602646149   11.86267398316053
S        34.07175316120277   18.90752035443007    7.47714587161561
S        33.19854768723143   19.39662344812719   10.62217876808251
S        35.46609187505907   16.46305110460127    9.61020429816325
N        36.71067150574633   20.16621372661497    8.95712593793304
C        37.92107610173088   19.79737547679637    8.27154628770780
H        37.92430178508484   20.20050430832274    7.25144093245179
H        38.00370486883450   18.71146934206719    8.22302784267390
H        38.80038157575321   20.18659424662423    8.79794293525424
C        36.63064614518120   21.59689816130821    9.09064841858281
H        35.68653694402322   21.87341063656281    9.56028102134409
H        36.68266878995870   22.08278306332559    8.10932166886855
H        37.45754261296926   21.97332770936832    9.70518916134332
C        38.01059965060448   19.44745201048802   11.69344907977917
C        39.09399127770951   18.70382853567180   11.21835475040854
C        40.32310243984274   19.33564398990626   11.08712353081788
H        41.16656645462430   18.77338665164945   10.71280063925866
C        40.48159758025866   20.66466519982373   11.43636300740555
H        41.44370017534707   21.14246313409219   11.32550834967788
C        39.40958439694922   21.37458739874916   11.94667948701989
H        39.53818250768857   22.40537526940486   12.24505245530409
C        38.16571945220470   20.77716774636884   12.09338673702951
C        38.94307036945965   17.25223119547531   10.88792509003393
H        38.73580422845415   16.68986987059758   11.79840663675608
H        39.84980237368587   16.86130492207915   10.43297484404565
H        38.10189869690451   17.08267642444139   10.21477303450705
C        37.01601947647139   21.52753807495065   12.68819218275396
H        36.13368781540910   21.44585853969104   12.05531202245009
H        37.26348315198089   22.57697535140131   12.82729846676122
H        36.75279861988652   21.09486963273233   13.65358064479206
C        34.74130470746704   20.25603593652091    6.54627019269208
C        35.72532698557353   19.99769297108212    5.58858767698077
C        36.25119413745973   21.06322262948257    4.87187747697130
H        37.01926629772507   20.87551607633273    4.13505107595846
C        35.79640051327725   22.35266396623930    5.08204782923712
H        36.21550968127087   23.17295517635594    4.51841605691840
C        34.78943607180270   22.58589797339612    6.00126726403108
H        34.41540984597110   23.58919242497939    6.14676981656145
C        34.24000691922612   21.54600229102071    6.73876146210885
C        36.18036638660831   18.59596972026277    5.33026449110252
H        36.44991762646620   18.10022505734756    6.26154228360172
H        37.03126613450357   18.57890447293067    4.65381951984035
H        35.36665543955918   18.01920933782594    4.89013126356702
C        33.11597923740666   21.79845712157795    7.69370721348559
H        33.32324820981758   21.36918525954828    8.67463928209662
H        32.20899157277379   21.31874293931790    7.32566608328942
H        32.93004286471936   22.86418577367395    7.80153193837140
C        33.39750325537932   19.64480324410695   12.36649723005562
C        33.45306720183522   20.95122853487758   12.85788991089396
C        33.61883566095779   21.13610200582245   14.22222094501934
H        33.67546451078147   22.14077019624993   14.61564351726463
C        33.70905541190128   20.05226430734518   15.07676389238155
H        33.84446517687972   20.21136854706003   16.13632558383988
C        33.61147384169471   18.76693343476462   14.57765364904943
H        33.66395360029633   17.92228941969333   15.24855293545469
C        33.44588481432036   18.53913125315168   13.21900754847637
C        33.31324859145444   22.12618425488922   11.93864248747803
H        34.02983263615714   22.07114003285885   11.11785308136830
H        33.46814754176729   23.05757542905998   12.47704781512146
H        32.31637156976816   22.13463774582494   11.49766381713609
C        33.32371767754484   17.14868478799895   12.68501071035898
H        34.22081892415041   16.87950329747813   12.12189125773515
H        32.46941562018956   17.07410086539405   12.01281044079870
H        33.20250209881316   16.43557925520974   13.49602741461445
C        34.87776987579195   15.84492667833871    8.05595513920409
C        33.50388212544213   15.70505606413569    7.84491018248337
C        33.07609189244511   15.22833854839912    6.61408501763505
H        32.01676845248355   15.12695233336643    6.43015049956964
C        33.98367751309311   14.88483786178689    5.62965866232342
H        33.63311178324270   14.52146407671070    4.67499215748514
C        35.34137423867075   14.99209558044141    5.87089860997584
H        36.05035722609057   14.70485364814681    5.10789265529014
C        35.80989362892423   15.46433956410387    7.08769145577658
C        32.52038349886718   16.05915866190522    8.91294721689051
H        32.48909068663199   17.14235442776191    9.05454524020031
H        32.80867500736456   15.60420291798462    9.86010987434237
H        31.52336933331426   15.72088852537214    8.64373995827204
C        37.28074518168631   15.54208191353372    7.36278823455086
H        37.85305495850061   15.27912556982183    6.47700230133595
H        37.54358485548413   14.85778090123076    8.16951878507641
H        37.56871825980807   16.54484597845626    7.68200607256498

