49
CSD_code = SUYDIA | q = 0 | S = 0 | Stoichiometry = C26H18Br2N2Pt | MND = 4
Pt        4.40454238545189    4.34236937745682    7.73179739436376
Br        5.52789542401304    3.32936977934864    5.77788568801716
N         2.71473803462533    3.48319179210847    7.11254153825542
C         2.48973240718258    2.19415817253143    7.41845646839360
C         3.16954182099827    1.60306206483867    8.50868134722765
H         3.80038628576972    2.23287012622754    9.12584553433517
C         2.99204681778091    0.28486069866654    8.80772310367705
H         3.51069448250321   -0.15393444672578    9.64651336986060
C         2.12569694691178   -0.51586346209761    8.03739220259463
H         2.01181404695478   -1.55991604669881    8.28654907753772
C         1.42573574536563    0.02773489551537    7.00310857427265
H         0.74056776675098   -0.56910003942667    6.41946074449314
C         1.57188332613249    1.39608360212634    6.66724371474039
C         0.87449715650260    1.99782879387099    5.62352414824918
H         0.20548282260643    1.41084547849876    5.01069613227585
C         1.03710888967107    3.35731412138647    5.37196241155019
C         0.32672219748166    4.04182965906720    4.35541193466133
H        -0.37510021912130    3.47895559539977    3.75789859715079
C         0.51943930009571    5.37372631668279    4.14483728824895
H        -0.02482051156291    5.88907404752705    3.36801986477567
C         1.41801836931359    6.09810627764027    4.95298532254626
H         1.53421529058804    7.15925059688020    4.79280958094282
C         2.12762193122221    5.47391235982250    5.93571174894931
H         2.78563932386944    6.03637504942091    6.58839200752309
C         1.97874893645433    4.08601946202049    6.16351503636966
Br        3.28110466088203    5.35575040480110    9.68630593944774
N         6.09458689934240    5.20120350900603    8.35096750884119
C         6.31952635003852    6.49023375088704    8.04509005358090
C         5.63965241355347    7.08130972448258    6.95488761729831
H         5.00879938818587    6.45146918713384    6.33776253180974
C         5.81714088096248    8.39949093224915    6.65577775490465
H         5.29850468294734    8.83824137964561    5.81695176300945
C         6.68349889740797    9.20025712510319    7.42606132451866
H         6.79739248797930   10.24429506533325    7.17683762758690
C         7.38344961067349    8.65671568912802    8.46038339327800
H         8.06862825845895    9.25357971764692    9.04399779524462
C         7.23732399845022    7.28837214904380    8.79629532476711
C         7.93472394153137    6.68667955265495    9.84004040226497
H         8.60372483861645    7.27370467669156   10.45285189988856
C         7.77211901196622    5.32720337686728   10.09165535284190
C         8.48247852217703    4.64274671584561   11.10826837497630
H         9.18429849606787    5.20565427289026   11.70575537534855
C         8.28973378381917    3.31086945221262   11.31894214952533
H         8.83396184175672    2.79557380883203   12.09581966233391
C         7.39116994707536    2.58644684515447   10.51081273352305
H         7.27496418485843    1.52531161163770   10.67105118084063
C         6.68161724018927    3.21056398628808    9.52800304157481
H         6.02362504899530    2.64806997708646    8.87533038770652
C         6.83052563650319    4.59843281729118    9.30008797387390

