61
CSD_code = SUYHEB | q = 0 | S = 0 | Stoichiometry = C32H20Br2N4NiO2 | MND = 6
Br        7.73523381481090   13.44015167317809   13.79846964454289
Br        7.94489840076899    7.66059219554852    4.60204374249929
Ni        2.93504175494274    9.59605011019473    9.64063972709982
O         3.92939403317069    9.38097225415459   11.58579419345399
O         4.39454083725885   10.20334381405306    8.70318119191885
N         1.53048738152565   10.35651604418918    7.99912471139338
N         2.65713929969075   11.50191807598545   10.21054853595236
N         1.42471175036117    8.93596923522633   10.55164486034312
N         3.25756087114143    7.79150563944677    9.09432827190994
C         1.08073369208378    9.82282282529047    6.89058211824506
H         1.41816657530977    8.81833290871231    6.66602718859242
C         0.19603294444457   10.47835064055634    6.02185732032213
H        -0.12779257232680    9.98989178408330    5.11596315804257
C        -0.26632085099261   11.71938399106472    6.36749102331744
H        -0.98120809170096   12.24436284418498    5.74969055354327
C         0.19349779956167   12.32625516117140    7.55459909101411
C         1.13866190182638   11.60423315843896    8.33105989362967
C        -0.23631298813517   13.59516587739873    7.98710593104151
H        -0.94685885150211   14.14245875427939    7.38635036005962
C         0.24806253110485   14.11462180013672    9.15907731950370
H        -0.09837928464150   15.07667725538901    9.50706474035040
C         1.20265992529565   13.43084372315196    9.91349566995920
H         1.55282879044999   13.86961901791890   10.83591345300264
C         1.69749666657506   12.19861261582990    9.50660597890452
C         3.58457214714867   12.17043497095483   10.84993977924260
H         3.64116154240374   13.24886334571553   10.66639428393332
C         4.57568319183388   11.66917517017200   11.71330184676932
C         5.49312388587502   12.59146477214222   12.26338537332955
H         5.35957059313071   13.64553390437597   12.06190584850647
C         6.52724021339498   12.16776776761131   13.04280109756133
C         6.73248811230762   10.80170605388654   13.30216507236652
H         7.56916529482855   10.49762675961045   13.91445325114772
C         5.87719540087161    9.88446445434741   12.77792264871840
H         6.01620185550642    8.83026135708502   12.96641751802929
C         4.73599288602736   10.25588041982791   11.98953578091734
C         0.52282678611650    9.56417348706132   11.27170399637058
H         0.50601348456736   10.64342917192238   11.22174810341133
C        -0.40367804965822    8.89845698051218   12.08553454704468
H        -1.11768079296592    9.47727435933679   12.65005037211485
C        -0.38718498228152    7.53097047560651   12.15168622251012
H        -1.08519340943018    6.98740410568598   12.77130552609921
C         0.56920207188759    6.82478797705664   11.39586359430786
C         1.45877946596339    7.58419308491367   10.59657176619771
C         0.70287497675239    5.42158401582382   11.41451218393004
H         0.03318509956968    4.84158089789216   12.03089276272953
C         1.69061746533110    4.81429749072788   10.68437078114426
H         1.80465314349439    3.74119669161615   10.72188519209634
C         2.57025342291597    5.55569441578726    9.89031681705859
H         3.35547234830841    5.03705583975914    9.36255188322803
C         2.45275085204050    6.93331813084224    9.81497457122414
C         4.05114574857179    7.38962359208008    8.14791305993334
H         4.01067027891692    6.35126954588069    7.81425452663791
C         4.99989855985606    8.21456519840670    7.50461296657580
C         5.84070862107764    7.66228550315213    6.51854085044804
H         5.70920980980843    6.62818180047458    6.23395828015982
C         6.81680807388329    8.42062571738975    5.93822346849295
C         7.01094932768896    9.75763122680204    6.31472413554740
H         7.79793089689724   10.33289491016434    5.85029539012549
C         6.20560158231201   10.32020314086239    7.25994105716866
H         6.33665641876747   11.34879864333487    7.55828192692237
C         5.14555734525878    9.59427322159163    7.88250483936226

