59
CSD_code = SUYMAB | q = 0 | S = 0 | Stoichiometry = C28H24MoN2O4 | MND = 6
Mo       -1.77247582254554   -1.97364370015056    3.48726754419194
O        -3.47468367696096   -1.58895260623883    4.13368276119749
O        -2.26530097812248   -2.89576724302386    2.20382252528312
N        -1.43467943308953   -0.05576347775829    4.81433044284177
C        -4.23513690166108   -0.79719309811652    4.82146649766571
C        -5.61336213548853   -1.06675122351304    4.95345174917575
H        -5.98849175512755   -1.97146997208082    4.49802838819495
C        -6.44018934113811   -0.20378275516902    5.62984335180548
H        -7.49342381836254   -0.42812463458949    5.71567520977560
C        -5.93600229835667    0.96237262321857    6.20858536492130
H        -6.59770986625432    1.63549390901360    6.73134447594544
C        -4.59404186937986    1.23778920665972    6.12084177910337
H        -4.19070025371708    2.12938510654579    6.58065708646134
C        -3.71864431961519    0.37777796679398    5.43909809365209
C        -2.32016170227274    0.66597020682998    5.40413147976910
H        -1.99915699666065    1.55336613231826    5.96506090785366
C        -0.09168707064684    0.33365996940278    4.86819015719364
C         0.30787702855192    1.61838632892954    4.50589946564974
H        -0.43435550668970    2.34744656724476    4.20812834751905
C         1.65120938238802    1.94289801730643    4.47333659189648
H         1.95074881633727    2.93434182102965    4.16555481906198
C         2.61895861135633    1.01023084807947    4.82115440263519
C         2.20718970840633   -0.26007428596061    5.21505408382258
H         2.94840192267331   -0.99171065762532    5.50117677563026
C         0.87145302020855   -0.60603402310199    5.23665976046548
H         0.54555175571800   -1.59768313310252    5.52364343692442
C         4.07375334687053    1.35233144825771    4.73405334188653
H         4.65775670866165    0.74790897989342    5.42331872860559
H         4.24129340801965    2.40406132694939    4.95430856827548
H         4.43372694596118    1.15798895647276    3.72314455423140
O        -0.06999634285815   -1.58854793963476    2.84178150666042
O        -1.27948568177877   -2.89513712340052    4.77108569127039
N        -2.11001053265846   -0.05544706539688    2.16075644600690
C         0.69043144274580   -0.79701637246845    2.15370435768616
C         2.06859950964232   -1.06678541193356    2.02144232056638
H         2.44373116452187   -1.97144861853704    2.47698453151957
C         2.89541025479556   -0.20397402693235    1.34480916784565
H         3.94870258108966   -0.42816056785700    1.25927799201474
C         2.39126998760882    0.96225722878048    0.76618537029765
H         3.05302054054866    1.63546525268984    0.24360004329100
C         1.04933035826889    1.23774673183145    0.85400042220236
H         0.64601610295662    2.12938480331998    0.39423858417907
C         0.17394853551774    0.37790321516147    1.53596000951094
C        -1.22447898362420    0.66636862334094    1.57120592135102
H        -1.54555300654620    1.55321766910176    1.00945520460034
C        -3.45300001078935    0.33387010151748    2.10661487349456
C        -3.85263706550601    1.61853326562436    2.46896293030914
H        -3.11044360370782    2.34756295217781    2.76690251589522
C        -5.19597736002038    1.94296096929866    2.50156542015868
H        -5.49555436099346    2.93437919102046    2.80939659477045
C        -6.16368813986532    1.01021738768339    2.15386645351466
C        -5.75185951280192   -0.26004416966518    1.75987851804495
H        -6.49305461167626   -0.99174245389496    1.47386150187370
C        -4.41608483532477   -0.60588349949109    1.73811030307076
H        -4.09014211645257   -1.59759919817473    1.45143429418291
C        -7.61849423643072    1.35230515934173    2.24090449213201
H        -8.20248282563262    0.74786821973493    1.55162850081200
H        -7.78606874632347    2.40404092781165    2.02066630743404
H        -7.97846541408039    1.15794614475464    3.25180903313976

