69
CSD_code = SUYNOR | q = 1 | S = 0 | Stoichiometry = C24H35CoN7O2(1+) | MND = 6
Co        1.61726127835753    7.99549299372684    4.30360905634449
N         2.44619349959496    8.63059050803103    2.66573228323609
N         3.86717982944167   10.95393502722741    4.04498058143342
H         3.60687605381590   10.00175400278119    4.53533915540767
N         0.82782319440422    7.32588305922766    5.85630232198972
N        -0.09042122112094    7.30935670274096    3.31217239166309
N         0.74950589171074    9.63014675854252    4.62418931817541
N         0.58866798251836   10.16641725638790    5.65803689368063
N         0.39089389741617   10.79825985207740    6.57796653032572
O         2.45837444136840    6.30347801633870    4.19039924805252
O         3.16055428539438    8.69433326824613    5.19587478524853
C         3.59800408499439    6.55434938148872    2.10766846021776
C         3.24283792547213    5.84214205668431    3.29396143532285
C         3.78081343423964    4.53604651902842    3.44825983241559
H         3.52930812412587    3.99926428142453    4.35030054050518
C         4.57832132276792    3.97729540428609    2.49329137613460
H         4.96703906585701    2.97999960296275    2.64004146401808
C         4.91371674082209    4.66610119610062    1.30845152028033
C         4.42498682959713    5.93159974314640    1.14071052793394
H         4.67134120414574    6.48997768117634    0.24757435206057
C         5.78485877026393    4.00285932751104    0.28848737318543
H         6.74016255791991    3.72229009337215    0.73018662743310
H         5.97122744112199    4.66197501227746   -0.55520738020221
H         5.31127407244119    3.09326490564676   -0.07907770236178
C         3.18827635809855    7.88184185564121    1.89713605248040
H         3.56745927289340    8.33496758359452    0.97643786215835
C         2.35887610168845   10.02273368427598    2.25200170624625
H         2.21940275291059   10.09069692598538    1.16588134681409
H         1.49657623365022   10.47492143056326    2.74002838297784
C         3.64206120638116   10.79259457445498    2.59207162947893
H         4.49304016820110   10.24320071494512    2.18129917842214
H         3.60959725717128   11.78339552082959    2.13006636230141
C         3.01912976479810   12.00852140680696    4.61626699482378
H         3.32853742692103   12.98350944087458    4.23912490354303
H         3.09887307816011   12.00356059835087    5.70151063217005
H         1.97873833041081   11.84181930360811    4.35474587311922
C         5.27952741106188   11.25442647354648    4.31101342806525
H         5.90685054024326   10.41491989423487    4.01661222691025
H         5.42269275310174   11.45109274954810    5.37151218039790
H         5.58659205576049   12.13847393387638    3.75054583192772
C         2.58959091648616    7.90561244985483    7.40661062644297
C         3.46535319688409    8.49965305208026    6.46479807294967
C         4.72476119669031    8.91340600564306    6.92744457196124
H         5.43240985108315    9.30793243046856    6.21504536721316
C         5.08769375865402    8.78503455222949    8.24810297536273
H         6.07063384397765    9.10980784829557    8.55662399927022
C         4.21646165043009    8.23966813448703    9.19268451562149
C         2.98732853666899    7.80209409212394    8.74933549360710
H         2.30076890370110    7.35383114879841    9.45300298825952
C         4.60264857819652    8.12459415323960   10.63390999194346
H         3.99717544271126    8.79731909998365   11.24048207374349
H         5.64891024653780    8.37941388666550   10.77821620515209
H         4.43633463616650    7.11175837212952   10.99588901753802
C         1.32330814439756    7.36236602515307    7.03801964133755
H         0.74876975855198    6.92274182007796    7.85499595102275
C        -0.42390377099214    6.63184812072013    5.64262109427554
H        -1.08688576182241    6.73420697521710    6.50913084007583
H        -0.20683349591377    5.56685951898572    5.50170856754679
C        -1.08123718792189    7.21363663081839    4.39930524395165
H        -1.94010164530204    6.60509787605231    4.09197426771574
H        -1.43237265711110    8.22198333510630    4.62886201480923
C        -0.61382581662202    8.22478209843033    2.29225037775398
H        -1.59262650892628    7.88376143953714    1.94023882009170
H         0.06554175456805    8.26172516461096    1.44421590564921
H        -0.71643203127722    9.22373014193234    2.70866915532451
C         0.06627365144896    5.99488799724795    2.67957165832545
H         0.41840812628995    5.25950192623535    3.39733738135490
H         0.79516924397488    6.05605126545622    1.87365846830650
H        -0.88905397965218    5.65720569685078    2.26358912905571

