59
CSD_code = SUYPAF | q = 0 | S = 0 | Stoichiometry = C24H23N5O5RuS | MND = 6
Ru        7.82302927180456    1.32694290112782    8.15272534784428
S         8.35714335115426    1.73351995895774    5.98811176675926
O         5.82069370781142    1.49888893753548    7.54944957405069
O         3.75818853176265    1.61364208327486    8.35665092044490
O         8.90617622966230   -0.90354193041217   10.60440797082343
O         9.77667231224134    0.89702135398483   11.63046833201299
O         9.75566677724117    1.62155817602140    5.58312001097068
N         7.95067119516768    3.36851066796622    8.71032245178626
N         8.70636165455807    5.01664234008429    9.97962022731966
N         9.72598726572892    1.04152609764384    8.50404875201294
N         7.89232809227803   -0.63549419368939    7.89616340921112
N         6.87863545369172    1.05983025986894    9.95707437048955
C         7.01028075193848    4.38387702368782    8.70678537780622
C         5.79042619570398    4.51845909218937    8.04950415861691
H         5.40470923489532    3.73686901401709    7.41766028754211
C         5.07624472069888    5.68139998895262    8.25149547004205
H         4.12283769745071    5.80150986204556    7.76103209934194
C         5.54835015873563    6.70595599048660    9.07253733061274
H         4.95312448695842    7.59698431046034    9.20035992763565
C         6.76303539879467    6.60243032855737    9.71983851721463
H         7.14014813187702    7.39206507063608   10.35107872396815
C         7.48115220692276    5.43458749133989    9.52223491258070
C         8.94316079928699    3.77731175223272    9.47571137489345
C        10.19845870225127    3.06198110446719    9.79241180788051
H        10.04867922762314    2.44023894310407   10.69888053198356
H        10.98394651862866    3.78888329849857   10.00663757389975
C        10.66530715522982    2.10810835882644    8.69077042481496
H        10.74659323706617    2.63685305249819    7.72941146313150
H        11.65210130342891    1.71370149033056    8.96013334439536
C        10.13662057071089   -0.16511487503632    8.33906349170226
H        11.18296503793718   -0.44332275381768    8.41367881752259
C         9.13067165358660   -1.15177633225610    8.06426187492314
C         9.36804642926922   -2.52472168018039    7.97425345244188
H        10.37028255388058   -2.89647510126314    8.11163880631888
C         8.30677483998956   -3.37620485181489    7.75219551561544
H         8.45760363170653   -4.44329903627190    7.69778886443623
C         7.03197252926730   -2.83474585904721    7.61279382989376
H         6.17308714369457   -3.46711378092457    7.45496547155612
C         6.87472850554383   -1.46431204770570    7.68961962822536
H         5.89851434882100   -1.00750349279120    7.57562183926109
C         4.96405642447808    1.48734118133967    8.49472253362297
C         5.55456719548982    1.27822750396316    9.88539459608874
C         4.74501678477890    1.27319740118694   11.00801868314445
H         3.68938868082428    1.45190375244609   10.87412083569786
C         5.31705994391956    1.03871410746396   12.24945003447054
H         4.71412587505707    1.04692129926686   13.14554965378399
C         6.67273318554854    0.77402778065750   12.30838027707364
H         7.16780767428481    0.55675227442928   13.24219373093665
C         7.42741422117592    0.78083207010513   11.13693731457432
C         8.88192689708667    0.21442551747283   11.12754297619787
C         7.74564597693495    3.31505020014308    5.31745348820889
H         8.18533923841307    4.12152105061799    5.89502128026819
H         6.66841884375374    3.31843861198693    5.42671535999288
H         8.04432403557276    3.39261293659405    4.27819433249982
C         7.38936600624899    0.65601533108641    4.88591807158592
H         7.49741562013073    0.98542076410077    3.85903685703979
H         6.35964795989460    0.71710315367830    5.22172126684578
H         7.76799999231545   -0.35547294236412    4.99538660827143
H         9.30546842909624    5.51109499223806   10.61961404772242

