66
CSD_code = SUYPEH | q = 1 | S = 0 | Stoichiometry = C29H28O6P2Re(1+) | MND = 6
Re        9.26032849959934    7.79596632218834    2.57456061187673
P         9.41727580361897    5.35074273616969    2.27644063855886
P         8.47606849558936   10.12681626862336    2.67778305526338
O        10.72158958541086    4.66633788075455    2.89627724258228
O         7.65131004811061   10.38983786053167    1.30233495768660
O         7.76244394615543    7.19785413067691    5.22503416983166
O        10.66866166523719    8.35550747071299   -0.12978431967488
O        11.83263019496238    8.29116899410718    4.21001199666577
C         8.32203896051016    7.42081828358037    4.26080137863352
C        10.13228574904895    8.14086881527889    0.85089418821163
C        10.89661537924827    8.09100122453440    3.57654342625568
C         9.29792247606531    4.68103000233502    0.58658139410008
C         8.84694276529956    5.44261303223780   -0.48177595696658
C         8.76510473963003    4.88051426411352   -1.74360893661404
C         9.13543950632846    3.56007602856876   -1.93793756443704
C         9.58212312250857    2.79601990722734   -0.87012050060920
C         9.66193019395202    3.35150320412197    0.39282280649441
C         8.15714171121105    4.43314586112342    3.19181554564178
C         8.40175977599715    4.00560003814705    4.49174958078920
C         7.40521504183612    3.35248685030051    5.19432793731211
C         6.16522128720891    3.14153681087170    4.61179152605228
C         5.91655818947935    3.58235411596690    3.32130993077072
C         6.90934307167935    4.23182191029648    2.61043124715874
C         9.68482392734118   11.48069994900111    2.79142646297610
C         9.30338346712986   12.73837993638500    3.25003506147487
C        10.23035782066118   13.76416401802182    3.28671690933477
C        11.53383466794578   13.53930368511585    2.87198428341927
C        11.91525474367887   12.28616190540200    2.41955956245933
C        10.99288002362158   11.25605405050312    2.37838523623449
C         7.31426616735495   10.47565525862922    4.02856781182276
C         5.93783059497685   10.49437036242332    3.83586177766169
C         5.09424539750738   10.68285527276848    4.91725619285474
C         5.62091142051404   10.83190636589336    6.18939029601651
C         6.99356391150820   10.78746669150690    6.38706407428652
C         7.84064389269812   10.60388651306608    5.31165735816209
C         7.28600876442556   11.69566731379778    0.85007750140980
C        12.02546823442198    5.05693333510927    2.47420762039215
O         7.15458400000027    7.51142285309086    1.44227267216241
H         6.94703455253741    8.33006953245221    0.96888994610665
H         6.40166746959052    7.29216593204737    2.00243787484032
H         8.28995174006290   12.91095582217439    3.58635649174546
H         5.52382232577966   10.36799434950746    2.84372414915780
H         6.73020876701277    4.56874598096835    1.59739821409671
H        12.25419031625399   14.34178122995754    2.90669833416412
H         8.55372053147790    6.47142190253332   -0.32358953711030
H         8.41532309772012    5.47253524117804   -2.57585057206850
H         7.40062088812060   10.89297175630747    7.38067582125759
H         4.02568370259022   10.70960096493378    4.76591293169697
H         9.07528700982061    3.12415246071855   -2.92320830185478
H         9.93551931641299   14.73927372596910    3.64291559305074
H         9.37036764636502    4.17851530077379    4.93575130054823
H        11.28022355517571   10.26969087738622    2.03703397265947
H        12.93149105213100   12.10994283830420    2.10306795616516
H         8.91293711709846   10.55869439016193    5.44806930017773
H         5.39053906818961    2.63168333462256    5.16361614636249
H         7.59477227172165    3.00923191964184    6.19980742268350
H        10.00422204401526    2.76454637622839    1.23395325165652
H         4.95076126362780    3.41460371445537    2.86854263916359
H         4.96039509889143   10.97693912358722    7.03002687740015
H         6.76333563244819   11.55246089117774   -0.09493299343517
H        12.72138512548744    4.64215924436346    3.20174686512461
H         9.86701969717183    1.76644061461972   -1.02356597781032
H         6.62770476026006   12.19436803352891    1.56256178837302
H        12.24601260162350    4.65476872329216    1.48354047099465
H         8.17184173810568   12.31027965899296    0.68686779444591
H        12.11795436787640    6.14725653691831    2.45250506414108

