76
CSD_code = SUYRAH | q = 0 | S = 0 | Stoichiometry = C39H30FeN2O2P2 | MND = 7
Fe        7.84056211470068    5.83978888644868   16.69453450008958
P         6.72603982937031    7.27330087127132   15.51418834574189
P         4.23994677974994    5.79264038103916   15.29203323080229
O         9.71601138163833    5.22313345182501   14.58042369100945
O         6.23942769166535    3.38560881236998   16.52750453697523
N         6.20971606718154    4.93596455099712   20.29784759528128
N         8.48243442045624    3.31624122747121   19.78320523790746
C         8.93698347404034    5.49963008397964   15.37798356073506
C         6.79685597686951    4.38164222328444   16.58912360103790
C         7.06117637985149    6.50917037599659   18.67614382726948
C         8.27262512271440    7.17668124475170   18.33070509498320
C         9.38553394462928    6.37743844104057   18.05738314109335
C         9.19222603357190    4.96235959296002   18.15840755332317
C         8.29358995216683    4.46222728241283   19.18845391616209
C         7.14529296709314    5.28623125416093   19.45512716813439
C         7.52398924404045    2.93123915409815   20.67040438290422
C         7.66132736918205    1.70579070964687   21.33941701642228
C         6.70358531105501    1.29846648592124   22.23261212210650
C         5.58142817805379    2.09562696536350   22.48519958661244
C         5.41975135579292    3.29652310817115   21.84292873544432
C         6.38394142149627    3.74003690472119   20.92560422240780
C         4.93567158847243    7.41893475929081   15.92715085319770
C         7.33236967854880    8.99001168249756   15.60373801496900
C         6.74004085147058    9.96744224803889   16.39478025257219
C         7.31085968426597   11.22622593656777   16.48094722735586
C         8.47509827719325   11.51240608995058   15.78855651701543
C         9.08023351095581   10.53446436934508   15.01238446649016
C         8.51738246303931    9.27671869884197   14.92895396739157
C         6.54233538548405    7.07006786911276   13.71217702296262
C         6.73644062610169    5.81506581446051   13.14701962016668
C         6.53917662462169    5.62782471155295   11.79031766569329
C         6.13438573612638    6.68792935160399   10.99597579267245
C         5.92614416675014    7.93687497080851   11.55817090240354
C         6.13020338451232    8.13084852741191   12.91149665029764
C         3.17613050564385    5.92424444432219   12.74063101186778
C         2.38551813931608    6.42717915570911   11.72249960022948
C         1.52650987959419    7.48302252466893   11.97295355043460
C         1.45192297752081    8.02849840767546   13.24544999196255
C         2.24427984145311    7.53129094252358   14.26240670319456
C         3.12023932994524    6.47844103185745   14.01311529668375
C         3.07057481653109    5.42173306830385   16.64686630547929
C         1.71728058624296    5.17688295663695   16.43845388347862
C         0.91001241534159    4.80718649096907   17.49985788704239
C         1.44496734314868    4.65600116754214   18.76851802078741
C         2.79936937352430    4.86270879820698   18.97458044334111
C         3.60786443119410    5.23382090241677   17.91836556222893
H         6.19185122586121    7.12452717320946   18.89126207277820
H         8.32290340370581    8.25843933743838   18.27925441295702
H        10.34800965656907    6.80382474644926   17.80393479183463
H        10.03074412925493    4.31134799303758   17.92920376385433
H         8.53508408114862    1.10782235079055   21.13065074870816
H         6.81205528560521    0.35618482544997   22.74992171353350
H         4.83957294972250    1.75838689138685   23.19479169909686
H         4.56395168150210    3.92688904341277   22.03292700766892
H         4.79541191798798    7.49781594002093   17.00693707469280
H         4.48957264442379    8.27324547283259   15.40943090611155
H         5.83528389557070    9.74751110278849   16.94467797003451
H         6.84607317970954   11.98526429435428   17.09350051096262
H         8.91606942217091   12.49560868554131   15.85839047953851
H         9.99318780643758   10.75554935629431   14.47937057302218
H         8.98286474234151    8.49648431303053   14.33962218564220
H         7.04144479235879    4.99400295511559   13.78365735300354
H         6.69750432994137    4.65294501408776   11.35326657688196
H         5.97837102826278    6.54133229920949    9.93751697644649
H         5.60364822198253    8.76188291624444   10.94005238116501
H         5.97587924223978    9.10838933103454   13.34929921040073
H         3.84778608880464    5.09785667483447   12.55628661380380
H         2.43951420986589    5.99487868175099   10.73410067769045
H         0.90886837634252    7.87926350196815   11.18036575981214
H         0.77097900056468    8.84389192530772   13.44406850897846
H         2.17127425983758    7.94992541544710   15.25757159647897
H         1.29535347686124    5.27792659171404   15.44817467982772
H        -0.14292536428788    4.63011398240976   17.33239791068966
H         0.80892492074938    4.36476367367737   19.59160115779801
H         3.23785135304741    4.72761426061132   19.95147358917664
H         4.66813340900158    5.36724432240940   18.08179282103209

