43
CSD_code = SUYXAN | q = 0 | S = 0 | Stoichiometry = C17H20AuCl3N2 | MND = 4
Au        4.04944663661637    2.03054838282713   14.84212032746598
Cl        5.40551421956766    1.03102492425182   16.30402268092845
Cl        3.07270143753449    3.32580641091865   16.45925471493539
Cl        4.85578141915271    0.79537510415067   13.09447577563317
N         2.79344286060050    2.92925596245802   13.51253806751907
N         0.94283557768186    4.12966345402886   11.77084192136296
C        -1.10518861724227    2.69950606630284   14.01055921186504
H        -1.12223620451379    3.78356823220660   14.11958040017256
H        -2.11854445488656    2.33447498908029   14.16901812167651
C         1.59755512443712    2.45296002719037   13.34793348451759
C         0.66158629005359    3.07549732602543   12.45987787288366
C         4.78029242170262    5.69997599406458   12.16921466812979
C         3.83337966384800    6.27781809523011   11.30041769585532
H         4.11828510776660    7.14948528558866   10.73002347828266
C         4.42586725051568    4.58867884244762   12.89933780987140
H         5.13358338787751    4.12270323529926   13.57186171780156
C         0.88829988953219    1.32574162511429   13.99854785884605
H         1.52158063095278    0.57280735203439   14.46265172753484
C        -0.61429305020017    2.29925691680057   12.59295910551384
C         2.19396907107884    4.62433499386341   11.90800611788457
C        -0.09363978429494    2.03428219167252   14.96210132278259
H        -0.56209405674187    1.30011358264550   15.61433004354259
H         0.43072583945734    2.75321397653795   15.59136357478720
C         3.14932499296638    4.03157485199929   12.78972073605703
C        -1.62477211968925    2.49737421644834   11.48531374050127
H        -1.90271428079031    3.54639343890150   11.42596561681667
H        -2.51705915635385    1.90669252373033   11.67585148371647
H        -1.20138104068983    2.20269231073641   10.52892755279119
C         2.57563421285799    5.75836295614775   11.17029053511081
H         1.84508535047832    6.19413769140384   10.50760022899857
C        -0.03671391963787    0.87108718271924   12.83903691190476
C         6.14176905445477    6.30109767333021   12.28104216408357
H         6.76125185882796    5.74247009125541   12.97648055341042
H         6.06908232686171    7.33211701536964   12.62489807015895
H         6.62836345268822    6.31157827562629   11.30671808851445
C        -1.06630897026137   -0.17632963852734   13.24242554158600
H        -1.69018475603235   -0.42516844575682   12.38714248186971
H        -1.71106508481919    0.15135730045637   14.04989667355596
H        -0.55499653306250   -1.08188665643164   13.56116080318280
C         0.76089062993193    0.32636352846570   11.65481559375282
H         1.29324318193699   -0.57451874774123   11.95203519039150
H         1.49604280716291    1.04077656125477   11.29010562642959
H         0.09375733267414    0.07233489987530   10.83433470737713

