63
CSD_code = SUZBAQ | q = 0 | S = 0 | Stoichiometry = C23H35Cl2NSiTi | MND = 8
Ti        1.10431178420724   12.46572257149973   11.14296007269080
Cl        1.49210448615401   10.86254606944757    9.72784973631256
Si        1.73264953827768   12.46575284591614   14.00265688540922
N         2.46338017667642   12.46573580127075   12.42923098377915
C         0.03354734998635   12.46576013658992   13.11972519782383
C        -0.40243914481089   11.32079819369440   12.37862695158018
C        -0.28193110473777    9.87750587763397   12.77210533318962
H         0.08180414579134    9.78450408837261   13.79084065469909
H         0.39333030570014    9.34252582991337   12.09859234199161
H        -1.25973915104425    9.39632352389886   12.71131558300879
C        -1.11722370126755   11.75516270156793   11.23178367608510
C        -1.84242429240334   10.85080420028160   10.28101296526657
H        -2.07297206175981   11.36272918568254    9.34814440512727
H        -2.78196117077272   10.51503996712979   10.72713207147839
H        -1.23940643438905    9.97212083086545   10.05045967049221
C         3.74116567669852   12.46574370920028   11.85771334645074
C         4.38310463666858   11.24763696630107   11.54411777607841
C         5.59436813124644   11.27224632067180   10.86977243275563
H         7.12411767729389   12.46576569891497    9.96817833855071
C         6.18887863321630   12.46575933774212   10.50806201281210
H         6.08491128954505   10.34308880513529   10.62418020586342
C         3.81913938188330    9.93176388648479   12.03260716206805
H         2.76513356699648   10.09370248684834   12.29892405679241
C         4.59939660201382    9.51718533292220   13.28578767844884
H         4.17258251830000    8.61682023005389   13.72319174939056
H         4.58373456351073   10.31184761467071   14.02715840467850
H         5.63653704071556    9.31431255976443   13.02682170206180
C         3.88101220080664    8.81303637907395   10.99157704986449
H         3.34076646998225    7.94207317973253   11.35782667096399
H         4.90678425851266    8.51146523818073   10.79506127108501
H         3.42632108046650    9.13274814615857   10.05858373626814
C         2.03071074084332   10.96983507944480   15.16349140767175
H         2.13445926068276   10.02392023710379   14.64620396029419
H         1.21294742890101   10.87972341497085   15.87197928932119
H         2.93567267872358   11.12667105976530   15.74149665878127
Cl        1.49217237030081   14.06885951638950    9.72782437336683
C        -0.40240366964977   13.61070701218536   12.37858155266458
C        -1.11718615091346   13.17631684861801   11.23174324707076
C        -0.28187350021420   15.05400992140732   12.77201475347982
H         0.08187791176028   15.14703697090116   13.79074205984363
H         0.39338223783559   15.58896432075711   12.09847615719011
H        -1.25967852552790   15.53519937744617   12.71122762815754
C        -1.84236358519810   14.08065738318826   10.28093731742593
H        -2.07287445779998   13.56871980202273    9.34806684404036
H        -2.78191903167698   14.41641751069471   10.72701971213995
H        -1.23934627237448   14.95934292520018   10.05039434582661
C         2.03069767497922   13.96166637851680   15.16350051538732
H         2.13446090740090   14.90758324953325   14.64622007512813
H         1.21291989000095   14.05177933067876   15.87197173807232
H         2.93564711314823   13.80482423740434   15.74152342925802
C         5.59436691600682   13.65926390781720   10.86979851124094
C         4.38310336580989   13.68385782277869   11.54414394207243
C         3.81913553776702   14.99972069630409   12.03265673951747
H         2.76513347393702   14.83777182810497   12.29897841364340
C         4.59940096449404   15.41428481302234   13.28583681606898
H         4.17258693052381   16.31464196366435   13.72325715760833
H         4.58374789709154   14.61961200957380   14.02719651190590
H         5.63653850348731   15.61716555406488   13.02686575702253
C         3.88099191849776   16.11846443543057   10.99164307275945
H         3.34075458303356   16.98942296225072   11.35791619167569
H         4.90676062573027   16.42003703946330   10.79511284546314
H         3.42628334112165   15.79876726662735   10.05865348280424
H         6.08490846781212   14.58842740904856   10.62422537002884

