68
CSD_code = SUZBAS | q = 0 | S = 0 | Stoichiometry = C33H26BrClN3NiOPS | MND = 4
Ni        1.43636288537167    3.74935779848474    9.03268367966798
Br        4.49379428531308    6.84476464161105   10.66850272367882
Cl        2.86936441237091   10.41891640365496    6.76951065322671
S         0.38910573265320    1.93437108826674    8.60101393027545
P         2.66093617200600    2.90828314814342   10.60564144511431
O         2.29594064101243    5.31645844163012    9.51009085201257
N         0.42624380375445    4.61978418188137    7.65423999176307
N        -0.53912884723834    3.89099226635938    7.03178765882578
N        -1.52575747053175    1.78847804200560    6.82595025290115
H        -1.52447611349372    0.87151029888443    7.25332724305072
C         2.36645752510482    6.42104244060002    8.86132079296821
C         3.35555755047427    7.36114599838334    9.24102951551181
C         3.51825273995615    8.57678232910397    8.63249100955802
H         4.28842160943411    9.25983347330769    8.95327854415168
C         2.66673332195970    8.89937771077450    7.57742806357358
C         1.68229303666124    8.03342541033273    7.16684774806079
H         1.06660690427600    8.31634633857397    6.32992282534122
C         1.49886371959185    6.78788614973805    7.78962655162960
C         0.46514306526864    5.89163650440075    7.33256920709021
C        -0.59911932829650    6.43543503445467    6.42249652889063
H        -0.85338989418346    7.45568859529507    6.69404018282287
H        -1.48622981871398    5.81169885559899    6.49976357078856
H        -0.25765652687122    6.41500552976742    5.38799447289601
C        -0.63254248559912    2.64847612180878    7.36918793964913
C        -2.44641593198019    1.98071469648728    5.80397714180064
C        -2.46279107636474    3.12185088624010    5.00708442146853
H        -1.72994759952137    3.89021077917668    5.18047695576874
C        -3.40503879595554    3.24829113079578    4.00370443616819
H        -3.40942519706055    4.13752101679779    3.39066337530005
C        -4.33557403159698    2.24830417317462    3.77694328675761
H        -5.06986777870523    2.35478595246256    2.99314665932471
C        -4.31396493833804    1.10628497085283    4.56104804996523
H        -5.03129876843047    0.31746458189129    4.38919848055265
C        -3.37734689229997    0.96901380211376    5.56617267035924
H        -3.36163247867380    0.07644951950804    6.17609943338735
C         4.44774376604023    2.98952037646994   10.29698002511413
C         5.35516575196480    2.46989360489473   11.21531506600188
H         4.99550381355750    1.98059960672757   12.11033973018647
C         6.71189171809255    2.57185087743389   10.97029925540240
H         7.41798193710225    2.17813146879381   11.68668149977501
C         7.16747648722120    3.17688845035702    9.80933378705518
H         8.22847996762357    3.25933554011846    9.62657455037238
C         6.26559309525098    3.66544644063784    8.87909008834093
H         6.62160542191909    4.12284920802190    7.96783783374818
C         4.90754933273607    3.56765778062847    9.12070573424353
H         4.18817751667458    3.93779372249273    8.39794799598621
C         2.32340692930524    3.94615335933917   12.05859012009596
C         0.98194117374772    4.27497474591780   12.24423458117228
H         0.24733740379426    3.90502563928438   11.53042644174215
C         0.60081353920283    5.07287460598207   13.30493145725095
H        -0.43907626169471    5.32964571336437   13.44580375115455
C         1.56246488675608    5.55458395655201   14.18044779132136
H         1.26996173673788    6.18643349120740   15.00611811783313
C         2.89756545533245    5.24244585121339   13.98767764097635
H         3.64675023924968    5.63619141392410   14.65807126079618
C         3.28481626937793    4.43934354439871   12.92781064742891
H         4.33021032501489    4.22436297911673   12.76697215089346
C         2.49158368956467    1.20879982617104   11.23875045269953
C         2.86048415808212    0.17543857931942   10.38151303266015
H         3.22629304429599    0.41720541022455    9.39191412447895
C         2.75276261198496   -1.13875714969017   10.79125843852077
H         3.04135624020191   -1.93817380104620   10.12484992715826
C         2.26917936400534   -1.43025804409860   12.05769848189892
H         2.18270325992313   -2.45775443619409   12.37889972840077
C         1.89134430643176   -0.40549895332340   12.90851842213666
H         1.51002183225746   -0.63335728321185   13.89327871801055
C         1.99730950221779    0.91385775744656   12.50250047108083
H         1.69932805467682    1.71280740494689   13.16686838176320

