93
CSD_code = SUZBEU | q = 0 | S = 0 | Stoichiometry = C40H40N6O6Zn | MND = 6
Zn        4.87139573397024    4.71520164228938   19.02359971155888
N         8.08052303840278    6.34410854940086   20.63205099584097
O         6.35762129026884    4.82513924872637   20.25756817041763
C         7.87977737108947    6.72993209171367   21.95834647772703
N         9.08613516679905    6.91999131819793   19.90530643824901
O         4.69691572887238    2.60244569343900   19.18330547262892
C         7.32575930613687    5.51404706584161   19.84744295587908
N         6.33491918523049    1.49058565599915   18.07351342714200
C         9.01187021661721    6.47139614982431   18.68483841376382
C         7.51753253153259    7.57894808605228   24.57919319320187
H         7.37575238162863    7.90784828422502   25.59821288911374
C         8.82528997137505    7.55416699446363   22.56608593873689
H         9.68878031099589    7.85617630545844   21.99590330753544
C         6.75007619762754    6.33137329254210   22.66996865581477
H         6.01768499509531    5.69438349052891   22.20227951851782
C         8.64099504678039    7.97171422251168   23.86955059457832
H         9.37887262441578    8.60896094934264   24.33492765857919
C         6.57815613332584    6.76137764854461   23.97304769217310
H         5.69771839754838    6.45289837297955   24.51859731426171
C         9.95216935952739    6.97292833584333   17.64768961550901
H        10.43858777822901    7.87009298923186   18.02121046953964
H         9.41750889151042    7.19854323045756   16.72764584297338
H        10.71778513116480    6.23206868300988   17.42315791798807
C         7.37699787146195    1.83288603889986   19.01259591538445
H         6.96196219380697    2.50402451706833   19.76215665540845
H         8.19639185092904    2.33498569225511   18.49555384705315
H         7.75755359329654    0.93064437665917   19.49643608742035
C         6.74966142061887    0.78572928351925   16.88972596112515
H         5.88230176715755    0.52820820784068   16.28523230742978
H         7.27871499591270   -0.12868513637934   17.16680687855767
H         7.41946329968888    1.41155999882554   16.29315117499232
C         5.09581535106923    1.93512589263280   18.23778588532702
C         9.25853600339841    4.33625387627397   16.02701044558692
H         9.78765136767611    4.03216091615521   16.91890123940633
C         7.91863657557021    5.55777834221817   18.54722973724356
C         9.84739894611043    4.19607081823368   14.78310295855495
H        10.84621978810951    3.79200777910744   14.70256773154134
C         7.97121345334469    4.85181682999626   16.13492381640109
C         7.28853749415503    4.93997365229325   17.45487689022596
C         7.27167553496857    5.19786832693542   14.98368376131946
H         6.26427321870330    5.57324029977125   15.08147202355124
C         7.86939478675352    5.07054290340758   13.74330313165267
H         7.32870311912291    5.35471087369741   12.85238017579676
C         9.15810171973160    4.57170104940338   13.64150975867395
H         9.62345741961624    4.46851046319958   12.67221833712866
O         6.15135720617075    4.41421637373798   17.53485853480570
H         4.40685029078650    1.60735706897646   17.44084244555307
O         3.38602547733796    4.60611726309655   17.78946114439937
C         2.41623635208484    3.91927835847467   18.19904247443273
N         1.66071082717847    3.09014095645611   17.41413010476114
C         1.86308034798578    2.70194528100500   16.08877092189280
C         0.91852607422120    1.87631072045583   15.48143519713390
H         0.05444020748330    1.57507421787602   16.05112390242592
C         1.10446573947249    1.45642297155081   14.17895107054585
C         2.22863741655792    1.84817770580024   13.46987635448683
H         2.37173613523899    1.51734806723337   12.45166412987029
C         3.16707188199920    2.66712073229334   14.07562126013569
C         2.99348563919841    3.09949481847634   15.37768931085932
H         3.72526805318985    3.73737717683460   15.84509456206641
H         4.04806976820259    2.97487694346963   13.53057029206233
H         0.36740423960791    0.81793807062207   13.71395767605571
N         0.65314161371917    2.51682285568648   18.14016713953211
C         0.72675406008886    2.96634459066676   19.36034189537764
C        -0.21569322253932    2.46716631701935   20.39669295178270
H        -0.70387347791277    1.57113355747198   20.02274839448079
H         0.31765789181634    2.24028752228931   21.31719781118920
H        -0.97978542372195    3.20977290183018   20.62060112107107
C         1.82179905887195    3.87769204378043   19.49861200731556
C         2.45179107433486    4.49534427337510   20.59117595789785
C         1.76677526248725    4.58820954949354   21.90957227384836
C         0.47945102246882    5.10452292640824   22.01376602462295
H        -0.04802967006381    5.40637505234163   21.12015317398531
C        -0.11158189413040    5.24842807863990   23.25623328024605
H        -1.11044510136741    5.65295961074221   23.33378512965364
C         0.57564670196548    4.87609581655169   24.40013865708467
C         1.86453420921921    4.37693362436910   24.30207324628326
C         2.46430549391713    4.24568528437748   23.06311978572265
H         3.47179988356012    3.86984830403325   22.96814887467884
H         2.40370153859072    4.09553009822302   25.19479135364522
H         0.10864579443662    4.98223252407458   25.36832308597476
O         3.59080627768863    5.01730011893069   20.51252507332082
O         5.04355210936378    6.82823968758635   18.86456589538812
C         4.64379501062641    7.49351788029512   19.81115912423329
N         3.40525929715832    7.94060358931433   19.97323448501047
C         2.36469005669718    7.60140605170047   19.03131507731807
H         2.78186718162452    6.93514629072989   18.27861082227154
H         1.54578251159415    7.09473838202039   19.54473668860208
H         1.98279616354237    8.50556796185694   18.55218406456526
C         2.98860353213873    8.64201218447408   21.15840059379745
H         3.85486842243689    8.89632225400522   21.76575138500939
H         2.46147259276460    9.55807919648224   20.88308951520959
H         2.31652077449837    8.01513882315714   21.75132052134928
H         5.33123703811347    7.81740261900847   20.61090781657861

