97
CSD_code = SUZFEY | q = 0 | S = 0 | Stoichiometry = C35H55CoN2O4 | MND = 6
Co        3.74524064996467   -3.72505021074357    4.36660445256698
O         3.94779881316998   -3.78766859703364    2.56341150693850
O         3.05641880674276   -2.08216788763290    4.12108901055305
O         3.78425658804410   -3.48943376095328    6.17150546095889
O         5.40676860052835   -2.96450972992081    4.41887488211724
N         2.12514281930576   -4.53642314629711    4.41366165306137
N         4.58279415065608   -5.72397828414613    4.63292754404767
C         3.95822608703201   -2.56913689163001    2.07153452154645
C         3.41859454277384   -1.59053799973151    2.95761149266523
C         3.29471894309022   -0.23623316974061    2.58665101983456
C         3.75844332115322    0.07903846289840    1.32545757569871
H         3.70743798500815    1.09610555630177    0.97253110713376
C         4.32427999226165   -0.86776165442370    0.46821317642252
H         4.67856511092262   -0.51722764015575   -0.48750821103613
C         4.44863977833803   -2.20139133797311    0.79963287157107
C         2.68553190686896    0.77089189042620    3.54720828413038
C         3.51629311652789    0.81092252846947    4.83661693776167
H         3.06970451459872    1.50227084518620    5.54876166680448
H         4.53125148029973    1.14029666939360    4.62603161177518
H         3.56419360712714   -0.17291310551833    5.29307217186623
C         2.63237960320252    2.18257466704343    2.95706182051557
H         2.18574706434160    2.85915688365056    3.68303178496337
H         2.02573646418074    2.20743684036670    2.05471064032521
H         3.63028889645363    2.54780074970515    2.72595717272630
C         1.25483700322407    0.32578489617774    3.87805954759691
H         0.78851100431143    1.03190709756000    4.56230850254636
H         1.27090025941136   -0.65310899062599    4.34731313552406
H         0.65515344611801    0.26975443708078    2.97143877327020
C         5.10281384197914   -3.23793473104591   -0.09734071798155
C         4.09224199656977   -4.35340027000676   -0.39248666679191
H         4.55035217656155   -5.12917605262369   -1.00346925149885
H         3.23404206207057   -3.95105114736540   -0.92709685592429
H         3.74513174716594   -4.79592948066531    0.53567652380275
C         6.31532572871786   -3.81423724273583    0.64713944001022
H         6.77184634975429   -4.61639635569116    0.06970888273908
H         6.00764619679702   -4.20390938066875    1.61280874998547
H         7.05757535466210   -3.03613829080727    0.81291949623112
C         5.58182778029008   -2.65361111322456   -1.42838348459008
H         6.04240003099739   -3.44125081050345   -2.02181685104196
H         6.32282301718745   -1.87375176636121   -1.27009742095508
H         4.75045024111841   -2.24438941940736   -1.99755986447156
C         4.63437248249285   -2.54120750754083    6.52301380227949
C         5.60488628757105   -2.26720015389026    5.51274805436551
C         6.68576366226806   -1.39816601989808    5.74505511689178
C         6.71467605100100   -0.79171971767221    6.98723125635962
H         7.49902041971422   -0.09272800422012    7.22700205097609
C         5.74757110025748   -1.02755262206383    7.96031000857862
H         5.83997805343903   -0.49126543150518    8.89037958952987
C         4.69197709722783   -1.90237554146090    7.77356825732242
C         7.71402573193302   -1.14205793558803    4.65474072988415
C         8.36560676000945   -2.47584718911338    4.26625344720334
H         8.82657861170936   -2.94297461801842    5.13485168972504
H         9.13102085919634   -2.31584566056405    3.50922981464384
H         7.61417085654305   -3.14665151237640    3.86281192706025
C         7.01314784417550   -0.54818314163283    3.42621561775776
H         6.56446100173553    0.41197452706705    3.67091396167548
H         6.22991946964102   -1.21260762497428    3.07401116231084
H         7.72873647409170   -0.39822293236857    2.61971532839042
C         8.81406472697965   -0.17665527142628    5.10408624352577
H         8.40125946603757    0.79652207353016    5.35887251084103
H         9.52468884907378   -0.03803416007166    4.29143248318603
H         9.35419105004248   -0.57056330214207    5.96211058259725
C         3.58608521333754   -2.10886462755935    8.79587631772236
C         2.28831317835912   -1.55619751511441    8.19030173436650
H         1.44391857376027   -1.75521507418372    8.84790878570038
H         2.09947134082705   -2.01480508525163    7.22466211814811
H         2.37237704273886   -0.48092011146699    8.04650416393419
C         3.42800798051853   -3.60485686881726    9.09419673171132
H         2.62629465195550   -3.76433426742154    9.81313059908600
H         4.35112612187947   -4.00631856169966    9.50894479601403
H         3.19154032806643   -4.14321709593345    8.18186052766868
C         3.85737446036758   -1.38419151627755   10.11698613620175
H         3.04530401338165   -1.58942073299453   10.81208880249809
H         3.90965227992646   -0.30802299692956    9.97207056361283
H         4.78540550177977   -1.72809854645687   10.56829021841179
C         3.96751239253257   -6.40150620659603    5.78588641281621
H         4.51600727653983   -7.33500773637275    5.98374736343603
H         4.08256691633803   -5.75124877324576    6.65375947793577
C         2.48704711191321   -6.71227266601927    5.53700470528648
H         1.88957387761180   -6.41109087460978    6.39647533868073
H         2.33768826698557   -7.78201986526136    5.37949094562387
C         2.00515939747631   -5.96514370843939    4.27927035295732
H         0.94370409170892   -6.20722272568887    4.11379449899128
C         2.81358901216993   -6.47409864271011    3.08344090112831
H         2.45867859607725   -7.46566780314581    2.79890795377690
H         2.64660873272357   -5.79441772446835    2.25046914237589
C         4.30249649924446   -6.52801174225675    3.43651751781136
H         4.89621645641091   -6.13805378563572    2.61029048888177
H         4.61603961423111   -7.56532623096637    3.62938883021910
C         1.09094637885942   -3.94398621003743    5.21352287858392
H         0.96847085594909   -2.90325294573563    4.91318713059529
H         1.34774372232589   -3.95381461986353    6.28064779700661
H         0.14271161608506   -4.47290163425414    5.07614721155690
C         6.02793775829076   -5.68401545113318    4.84844363082309
H         6.25307244865901   -5.13611461940548    5.76197964531129
H         6.51100705345686   -5.17965438049641    4.01519675539375
H         6.43530330284297   -6.70006996425152    4.93468379723142

