56
CSD_code = SUZGID | q = 0 | S = 0 | Stoichiometry = C18H27CoN6O4 | MND = 6
Co        7.09613533886833   13.09145279963757    8.27736191134710
O         5.68968516426585   15.59938067748679    8.57978072896503
H         6.62937306040947   15.80011077438028    8.17430388432611
O         8.05710520848744   15.67236193958539    7.72283428026960
O         6.22367426451133   10.53835025961742    9.02445548636423
O         8.44681258270328   10.58023332008879    7.83038848128880
H         7.53121118821761   10.38117741689419    8.28503148364596
N         5.69414043375543   14.25202831149518    8.74994369836651
N         8.29099140531294   14.40371588780929    7.65089269230422
N         5.92114789354019   11.78963213569482    8.95152145148492
N         8.47706228590527   11.93496372113578    7.74077202151175
N         4.91651891570361   13.71983929294499    0.80056343226354
N         7.94594082356529   13.28314443987617   10.18224229849347
C         4.66889826377541   13.68151983656533    9.29171219784124
C         4.80053100356184   12.25552285365893    9.42187661514262
C         9.43415240661811   13.94629068658241    7.22766591924661
C         9.52806172098543   12.51210078803089    7.25982887554641
C         3.45233428154080   14.41482372154558    9.74953303773083
H         3.58531203231106   15.48100172340427    9.58687378959378
H         3.27366703859939   14.22799965507267   10.80700283095516
H         2.58003480270021   14.07398467014300    9.19410684971800
C         3.75087640885192   11.39271046648269   10.04647466447632
H         4.07501924637204   10.35614824335188    9.98468442867982
H         2.80109624907959   11.50260717046367    9.52586964567876
H         3.60195596512938   11.65740715240215   11.09278851120996
C        10.54578530262009   14.82659339701109    6.75197350158682
H        10.21039811721224   15.86049773952166    6.79693362270655
H        10.82106248289125   14.58348170600522    5.72684633192306
H        11.42848188876566   14.71111751063700    7.37988788664196
C        10.73752468627107   11.77944385793061    6.78229787176999
H        10.59298391049741   10.71068342750869    6.91490258195971
H        11.61702956662979   12.09827387000895    7.33916792422476
H        10.91105949400427   11.98943955676312    5.72815210455012
C         6.22956962904810   12.80067115369906    6.49796177071774
H         6.38555643801987   11.75322589128267    6.22196272894699
H         5.15105136238841   12.93926715716073    6.62270680330732
C         6.68513673151417   13.67860875400068    5.34178000745228
H         7.73917104578280   13.50028089987854    5.11718766715924
H         6.56358045376612   14.73448904471119    5.59132789134008
C         5.85979371082717   13.37411867363969    4.08671495815905
H         5.97106960454290   12.32057744469581    3.82027038411337
H         4.80224721093746   13.55754732949358    4.28838372455513
C         6.31016417635033   14.24829675638007    2.90918069205394
H         6.18766313764170   15.30652383103232    3.15764980275234
H         7.36566579502925   14.06688242462438    2.68558110745202
C         5.53832904781582   13.96173921181582    1.72939067965006
C         8.26389383804785   12.20424667978359   10.89484174115323
H         8.05493621377185   11.24033803487856   10.45112531215480
C         8.82687107863578   12.27647233506771   12.15735141004220
H         9.06502233205921   11.36986529775167   12.69051737792181
C         9.07306342768794   13.52175599660710   12.71210072219192
H         9.51120979124575   13.61441323853351   13.69453996994315
C         8.74163954256458   14.64484001830187   11.97192981872654
H         8.91193604078799   15.63794223137135   12.35621059170605
C         8.18258348784470   14.47945247737517   10.71640656032889
H         7.92748247003090   15.34510610817151   10.12040723636574

