153
CSD_code = SUZGOL | q = 1 | S = 0 | Stoichiometry = C79H64F4IrN2OP2(1+) | MND = 6
Ir        1.58093072697859    0.24674907140676    5.64239239453171
P         4.06821947352294    0.23718899965890    5.60330337368904
P         1.02310425015068   -0.04906381629670    3.16197579106784
F         1.81679087742522   -1.22003126207736   10.85170575185307
F         1.80068275236976    3.35146152311673    9.91335123110924
F        -3.46786064463101    2.17658547464686    6.04747620435575
F        -2.88336310261940   -2.45409829820646    6.28570881109105
O         3.54726345147656    1.28398052647125    3.23241754092973
N         1.70056902874619    2.29945081988228    5.76492667354968
N         1.29094239723541   -1.76677033480086    5.86737666486469
C         1.80945360284565    2.80814458369816    7.01764982932659
C         1.98481061445723    4.17371223755927    7.21669898862223
H         2.10785622016409    4.57064440951007    8.20836383448986
C         2.02135575317265    5.05450525922370    6.14303507616814
C         1.85074169248114    4.51210436956992    4.86970879468102
H         1.82732686822350    5.14649102125197    3.99827625325725
C         1.69178320059188    3.15051854947404    4.74002379491227
H         1.53793348634899    2.72458678938970    3.75972386297751
C         1.75327756923987    1.81439670691346    8.08331458082517
C         1.69495561244108    0.47127365394573    7.65716579003042
C         1.71445252138413   -0.53576571547482    8.61048885752313
H         1.69695954977815   -1.58102998886086    8.34716682109419
C         1.77564865083060   -0.22108904180195    9.95505158370080
C         1.79117129165768    1.08536477507773   10.40399647191191
H         1.81638514939546    1.32210759739445   11.45436669682825
C         1.77872509339248    2.08474125527240    9.45368697524731
C         2.21489892035146    6.49891615512418    6.35611743744599
C         1.23815895842168    7.23824306670947    7.03329721751239
C         1.43751798382050    8.59530803768335    7.22275136556941
H         0.68218888912473    9.17017497495811    7.73841265026111
C         2.58386639550619    9.23545858860525    6.76949361630327
C         3.54219533573679    8.48273694336232    6.10846213291024
H         4.44415500165320    8.96144538811443    5.75546514041733
C         3.37418502274455    7.12345533708472    5.89098100317900
C        -0.01891860190761    6.59319722262292    7.53787141039037
H        -0.79788281544353    7.33962159345608    7.66923952264124
H         0.15600211726405    6.12179293069663    8.50478158938603
H        -0.38013159336886    5.83006524410861    6.85128775545575
C         2.76284353287739   10.70501870863762    6.98379249549948
H         2.09637027247520   11.26131755994879    6.32475987919830
H         3.78453419641130   11.01013446539400    6.77423396879493
H         2.51629997437628   10.97572286438776    8.00837301603963
C         4.44860869047142    6.35047009097925    5.18194492558718
H         4.26187278284369    6.33929394171240    4.10811809834893
H         4.49969713839233    5.31934704702250    5.52626863349365
H         5.41620486836145    6.81907003405070    5.34353645957795
C         0.03200042653730   -2.13557244044227    6.21304295336533
C        -0.23203422737381   -3.41953607012195    6.68041596387518
H        -1.22565557805311   -3.69400716532038    6.99151263803867
C         0.78914431122931   -4.35408403807828    6.79172645595385
C         2.06021383131617   -3.97172892462977    6.36499531995974
H         2.88573264953123   -4.66425528910712    6.40761193261473
C         2.25798300717184   -2.68148340177524    5.92372136555384
H         3.24305750392062   -2.36281374794180    5.61375385456834
C        -0.95346903437258   -1.06502707765096    6.12650796723694
C        -0.42185460096648    0.22994526204710    5.95591426541039
C        -1.28750971498531    1.31265793562312    5.95899606679706
H        -0.93211933094457    2.32691881051528    5.86497513233410
C        -2.65135168924303    1.11072518453791    6.07095682383169
C        -3.20382026857591   -0.15189313814648    6.17515382239980
H        -4.26919684288799   -0.29838850153378    6.23219256968165
C        -2.33732593765805   -1.22455923860813    6.20748396038560
C         0.54023313117694   -5.68210190451820    7.38684528879489
C         0.23430297935236   -6.77379730819419    6.57363428397655
C         0.00396514563231   -8.00506093377594    7.16269042939058
H        -0.23394228992182   -8.85395683277564    6.53827756096271
C         0.07088944766339   -8.17284420365158    8.54022121402631
C         0.37685755983481   -7.07389858343201    9.32880519009250
H         0.43170858111212   -7.18827718150918   10.40151102732116
C         0.61323558525692   -5.82564259715435    8.77303220546070
C         0.15468272563705   -6.60097353210680    5.08600953328589
H         1.11523192157817   -6.26943360985019    4.69012966578603
H        -0.59533556735789   -5.85166081544602    4.83143556195776
H        -0.11427996598575   -7.53783852213730    4.60555688617363
C        -0.19187221744539   -9.51535028662288    9.14683863747657
H         0.44325186782700  -10.27155795315520    8.68845894720328
H        -1.22795785428776   -9.80698666159936    8.97813053468619
H        -0.00657796307919   -9.50439215294353   10.21738095105310
C         0.94727642885145   -4.64912829389366    9.64108032903903
H         0.98129741381724   -4.94123323246934   10.68660528686684
H         0.20238748948315   -3.86121718827317    9.53072001741847
H         1.91705043330397   -4.23044255525520    9.37080916609109
C         4.96301750954486    1.71527459803531    4.99840144718517
C         4.56336989523956    2.05891299889092    3.70458487018296
C         2.91263025732891    1.68331410270971    2.09461247339981
C         1.67131378098141    1.08129172752334    1.87204061235232
C         0.97994141492484    1.37443469306785    0.70371027747574
H         0.02883529082768    0.90293651376271    0.50826418235175
C         1.51906579343260    2.26899305588153   -0.20179200890303
H         0.99452535275161    2.48479776653499   -1.11919849586271
C         2.71922759392627    2.90405801895787    0.06882626436904
H         3.10441490772665    3.61280839530115   -0.64625509898032
C         3.43483820080168    2.64074326735352    1.23118666575946
C         4.73753891911414    3.35691240124384    1.54508181575922
C         5.16442790266123    3.07138958725260    2.97407361781856
C         6.21901104286673    3.74101199534172    3.58643613193616
H         6.74093958079759    4.52053829070414    3.05516186509011
C         6.63832995950184    3.41076277292478    4.86267877544716
H         7.46735887457611    3.94182612314035    5.30388617142289
C         6.02387270477402    2.39335268393563    5.57448037285456
H         6.38058331381808    2.13101005128759    6.55821331378847
C         4.54768401738128    4.86771831292872    1.34332064227115
H         3.71886200680262    5.22794182207576    1.95030882016367
H         4.33672868336639    5.09628878138951    0.30329631124870
H         5.44486161828492    5.41128027988230    1.62248823039930
C         5.83337737203069    2.83042189873627    0.60189389511674
H         5.55157161673077    2.99355358044003   -0.43516915199858
H         5.98472360591729    1.76311095437167    0.75549004427913
H         6.77360592646233    3.34140993271275    0.79170832608619
C         4.71196499015098    0.03117436362468    7.29470210413726
C         4.72287820728162    1.12078607586349    8.16244946773308
H         4.44351854461845    2.09960368505356    7.79761250527316
C         5.08524378736022    0.95829366434555    9.48631103123236
H         5.10144282392282    1.81253971869147   10.14645740864157
C         5.42041652329930   -0.29732639607898    9.96574405292976
H         5.69679618637595   -0.42550223359792   11.00072813610453
C         5.39597458283883   -1.38864342883504    9.11382682720709
H         5.65303801621506   -2.36912985007063    9.48524531552320
C         5.04011404451848   -1.22805910850884    7.78701920916671
H         5.03091463147729   -2.08599366807146    7.12898043136215
C         5.10456526125107   -0.93114680655907    4.64472565870345
C         6.46555155905818   -1.04348949081385    4.91746728170472
H         6.90050387478117   -0.48193954105441    5.73220331893968
C         7.25604840806217   -1.87545823673480    4.14760823719199
H         8.30972224509629   -1.96412462861010    4.36524144697261
C         6.70279516146427   -2.59002691373690    3.09531242332683
H         7.32628209366183   -3.23565464956648    2.49601515854447
C         5.35308489202196   -2.46946167561689    2.81211698565358
H         4.91368755179740   -3.01678091206424    1.99120749866860
C         4.55834315121415   -1.64145724894523    3.58488793685233
H         3.50526805029013   -1.54101461349360    3.36354131152252
C        -0.76957638466789    0.21374878178469    2.86818465436861
C        -1.23891489798147    1.52455917857954    2.94926975681967
H        -0.54544710158128    2.33422517516051    3.12787314459566
C        -2.58090525143200    1.80606414240389    2.78736171155513
H        -2.92744279724635    2.82652080678524    2.84762386425878
C        -3.48161145159226    0.77832880032561    2.55910630643534
H        -4.53173901743725    0.99528841083369    2.44053042088779
C        -3.02574584719400   -0.52531125216325    2.47986081995972
H        -3.71966965047095   -1.33127966124269    2.29450248226790
C        -1.67867875089601   -0.80883958666588    2.63209677810245
H        -1.34605772181457   -1.83146162492612    2.54513249543427
C         1.31144623524412   -1.65817117782648    2.32654179183210
C         2.05730135179616   -1.75010845138000    1.15347968607132
H         2.48469841880330   -0.86426100124767    0.70791016184978
C         2.26461840236233   -2.97613891974869    0.54706789246623
H         2.84034044684963   -3.02730187822678   -0.36504385804354
C         1.73254785232714   -4.12864064819262    1.09911814374232
H         1.88813585520361   -5.08303961421634    0.62028316244014
C         0.99964677033196   -4.04949632704919    2.27120130609743
H         0.57808653649448   -4.94289058411331    2.70533547637380
C         0.79866903704263   -2.82743142690115    2.88670171819396
H         0.23050372167368   -2.78439902455730    3.80395318976072

