75
CSD_code = SUZKED | q = 0 | S = 0 | Stoichiometry = C30H37N2OReS4 | MND = 5
Re       11.96431869478498   12.62525966272429    8.31648313091562
O        11.16525098881304   11.64288444515075    9.41260800312977
S        11.18359745304921   14.17499960555684    6.81266149009093
N        11.56906889784583   14.61646494041049    9.82842762169376
S        14.17398195980153   13.06666536580065    8.71007547010155
S        12.54565094017758   11.16892765906373    6.61881691049177
C         9.99656058780060   15.08260329804542    7.89236117093638
C        10.76976766883458   15.62628406026227    9.10868329526371
C        12.93339079844370   15.10407230218935   10.09703418755430
C        14.04210486572801   14.05179296270784   10.27007994145277
C        10.84635283030071   14.18527972063606   11.04093420915964
C        10.88581162084176   15.17578994577703   12.21258496374533
C         9.73167679454543   14.91737188851358   13.18763759559455
N         8.44561934917785   15.20192420094477   12.58850271022204
C         8.19772539016522   16.46555182745712   12.04608234120838
C         8.90367803877922   17.59972740705601   12.44779341386463
C         8.68809564785034   18.82581345953518   11.84277625826169
C         7.74268695913636   18.95947380182721   10.84187900337776
H         7.57958635302184   19.91228350035301   10.36356841679274
C         6.99188778270310   17.85865410731338   10.46876430689219
C         7.21931793274716   16.62848039437254   11.06098744027939
S         6.25478194270106   15.23885271113560   10.52749447905129
C         6.25278818164392   14.32268202529668   12.04426347474742
C         5.15817127553668   13.52720567968260   12.33161552869638
C         5.13828718734705   12.76892104862677   13.48861271826622
H         4.29278859343430   12.13499358422382   13.70399065348261
C         6.20674044414347   12.83988623515671   14.36365672229866
C         7.29155599531405   13.65338923242600   14.08614282834230
C         7.34756120438379   14.39468629544908   12.90753247125954
C        11.06330919845641   11.05637335118872    5.66723502934573
C        11.12876019543248   11.06864235150505    4.27948875704339
C         9.96672693129097   10.98388396795043    3.53845770509226
C         8.72499918492394   10.88540697581876    4.15800190432333
C         8.67579760233149   10.85853456351540    5.54651541450706
C         9.83132201569874   10.93498395811365    6.29964211680724
C         7.47565955116324   10.79533715436754    3.33483716744992
H         6.59021469934419   10.89164871504301    3.95810110090344
H         7.43245725243666    9.83433438492086    2.82224443690945
H         7.45881549148782   11.57662757375113    2.57665631808844
C         9.43426989292176   16.25722903410954    7.09671623059871
H         8.73070644713081   16.82028302787865    7.70848294693630
H         8.91537550739347   15.89095611022582    6.21452184295975
H        10.22952970508402   16.92517178535124    6.77106656913441
C         8.87220945028461   14.12129187373722    8.26072850179178
H         8.37125911701373   13.78783405294332    7.35397700961706
H         8.14027796619913   14.61651733582909    8.89533010205892
H         9.25954255969992   13.23573981791731    8.76793980942314
C        15.36894246531689   14.79152223127057   10.44598311694081
H        15.37828311785368   15.33625658473370   11.38885373644006
H        15.53458317715376   15.49469860550726    9.63262639190533
H        16.18921856974524   14.07859889410314   10.44725146454159
C        13.84596414136408   13.06427049985336   11.41581156350740
H        14.76951998336968   12.51048340844418   11.56889855235068
H        13.07082617048949   12.33895313809229   11.16988947472378
H        13.59559441192737   13.57979145246515   12.34132398486530
H        10.04345717821099   16.09415812000820    9.78254213346757
H        11.42631536719037   16.41834776736685    8.73761493332302
H        12.94251288742620   15.76343057308655   10.97310054797668
H        13.23928177142495   15.70298361049455    9.23309915751080
H        11.23538615131673   13.21980266487112   11.36107898398684
H         9.80719558231036   14.02897971389321   10.75133635514052
H        10.82770343861463   16.19956529912579   11.84032192905547
H        11.81495841015848   15.06991638691828   12.77486809630529
H         9.89250164254370   15.49436071079825   14.10957775850058
H         9.74300055975912   13.85651568943151   13.44455582846411
H         9.62458633814114   17.53005934587760   13.24705001028841
H         9.26251890190044   19.68137298982319   12.16468386106077
H         6.23377247464846   17.93674129888078    9.70469837936750
H         4.33638638444935   13.49608243205740   11.63287318627202
H         6.19886643746382   12.26582263576406   15.27766494572846
H         8.09731408809218   13.71235763653639   14.80058545044509
H        12.08840445900918   11.15432972219158    3.79339575421565
H        10.02113971906093   11.00193285602246    2.45915462682203
H         7.72127326593472   10.77480123128464    6.04682439088938
H         9.79385375833354   10.90114709974769    7.38324166517950

