44
CSD_code = SUZLOQ | q = 0 | S = 0 | Stoichiometry = C22H13ClN3O4Re | MND = 6
Re        1.72611084606701    2.02255648748773    3.09172362435611
N         1.91277806654718   -0.09470788564574    3.13535899687162
N         2.84577722053958    1.60286763299807    4.93418173215107
C         3.22918792536232    4.98090252225723    6.15269297344014
H         4.30521555323501    4.99397498397211    6.23021472628079
O        -1.03967141890140    2.08956266557811    4.46917466684312
O         2.17917284154889    5.07990620925624    3.01592704017812
O         0.59481546417571    2.11116603511947    0.21928626797016
O         6.44156848331212    1.66964265142236    8.44952234449437
Cl        3.96065700172207    1.85896654459779    2.24803703826068
C         1.94491119813252    3.95913079618379    3.06122603437356
C         0.97571778329007    2.11059746350653    1.30108001937068
C        -0.01274592130173    2.07133063642340    3.95871917602550
C         1.33993376216397   -0.92807784375866    2.27034261590231
H         0.55710983425872   -0.51120939939555    1.64959189050495
C         1.70149493406457   -2.25543690742431    2.14129758988801
H         1.21086975245994   -2.88114078993163    1.41361592205654
C         2.70767899156598   -2.74992794856827    2.95781164813902
H         3.02785510494757   -3.77800693170076    2.88484787414692
C         3.29257455823006   -1.89741163520296    3.87332790056970
H         4.06751865899471   -2.26600130654322    4.52439146040324
C         2.88128562834243   -0.56644891059062    3.94118681064638
C         3.43601506734162    0.39421592353996    4.90682045626595
C         4.48783074652510    0.06947160714449    5.75398276311047
H         4.96709789603077   -0.89160818811734    5.69310875219861
C         4.94983568917899    1.00669822782020    6.67636802420840
C         4.29385454196986    2.23673342292226    6.72247002882551
H         4.59010544017027    2.97902799619839    7.44554819979454
C         3.25561738271373    2.49578635040692    5.83922113080916
C         2.54677570879320    3.78864892562296    5.92356063358936
N         1.22449722967396    3.73793896296007    5.77902666990484
C         0.53316601211537    4.85715884111830    5.87312665673683
H        -0.53649862247490    4.75084284753125    5.75546111239500
C         1.11855006732266    6.09428215597156    6.09942846351671
H         0.51466681153963    6.98551027147176    6.16011587053697
C         2.49660002030800    6.15312198319037    6.23213661620025
H         2.99562381688069    7.09758409944122    6.39140785988111
C         6.05325465072141    0.72161394339682    7.56328851832121
C         6.85007691006535   -0.39087022383848    7.70674601324362
H         6.79498977726839   -1.30376897950448    7.15060545744286
C         7.76663188625562   -0.09314951042258    8.73506147396756
H         8.53903188925040   -0.72914632559747    9.11517791037243
C         7.46788654274427    1.17204962145119    9.14595001358913
H         7.90197426732648    1.79962297725327    9.89912902222760

