48
CSD_code = SUZSUB | q = 1 | S = 0 | Stoichiometry = C19H18BClN8Re(1+) | MND = 6
Re        0.67866003258630    3.16839061471497    4.04038596382299
Cl       -0.00880173488487    5.08135963519771    4.98956972714953
N         1.76442411572616    2.71376623276541    5.74855784203474
N         2.52770735212939    4.02116518050441    3.64727143601161
N         1.19260389084284    1.37037682601386    3.09856792610744
N         0.29893475984900    0.70082116680549    2.35424029985303
N        -1.14946526208764    2.18761833843336    4.47098197622004
N        -1.74337293437652    1.40219218337325    3.56392098157396
N        -0.33559570949991    3.59497474922079    2.23134699924902
N        -1.02461444549002    2.64721618572566    1.58392806202345
C         1.34010559745012    1.94723202138770    6.75486556400938
C         2.03597271151536    1.79497891357546    7.93569546225536
C         3.24033569797976    2.47292040569666    8.09356993285482
C         3.70445938866416    3.24561399389864    7.04881958481515
C         2.95370587096402    3.34758337976145    5.87634852948837
C         3.38563197155979    4.07782848714365    4.69281015849998
C         4.60572816211079    4.74837108109508    4.59062118105686
C         4.95624371134409    5.35431274771733    3.40151683603825
C         4.08168821415571    5.26018217202127    2.32383298269317
C         2.88908236078603    4.58944918846645    2.49534489941166
C         2.33477695412880    0.67352375567441    3.07996501881299
C         2.17244136239091   -0.46581330382984    2.30947372005576
C         0.85859249030040   -0.40519741849277    1.86814393674172
C        -1.93169099968284    2.22832879624458    5.54657440935153
C        -3.06065242453303    1.44545781128164    5.33186083707443
C        -2.89727579370465    0.93877092625850    4.05721208605595
C        -0.48420860581734    4.73450242730708    1.56070800880664
C        -1.28857641527763    4.51843225982346    0.44724961582683
C        -1.60835043823171    3.17566586518736    0.50239969893826
B        -1.13798393201434    1.23132966750053    2.16438322589862
H         0.39725486712512    1.43872711615089    6.60434760997976
H         1.64180513971552    1.16882169348051    8.71878480616399
H         3.80269863525271    2.39289152600561    9.00989091338607
H         4.63935260749069    3.77177482923992    7.14233225507568
H         5.27075475861171    4.79704724610331    5.43615581723480
H         5.89075130692333    5.88391989216990    3.30929410709609
H         4.31901367175155    5.70670475857759    1.37251585165254
H         2.18529928307768    4.50408215187825    1.67827654033916
H         3.20451376027021    1.01441237838247    3.60966064646964
H         2.89678765070728   -1.22434902985659    2.10038111016773
H         0.31154555521880   -1.08310976762887    1.24553342420630
H        -1.67248642303851    2.82225996511859    6.40251469257245
H        -3.87555298018655    1.27817810092927    6.00379219798517
H        -3.52582164001665    0.28658487643617    3.48673515428579
H        -0.03867492218100    5.64769876862600    1.90744727665682
H        -1.59459006654247    5.23512010705047   -0.28504780491421
H        -2.20627604610081    2.58006844436630   -0.15605083125143
H        -1.77698110696115    0.51741265249530    1.48316933016364

