115
CSD_code = SUZTIS | q = 1 | S = 0 | Stoichiometry = C61H48IrN2OP2(1+) | MND = 6
Ir        9.35485818534571   11.02454463988879   16.02186261616109
P        10.96521993208377   12.79100917793988   15.27250427215994
P         7.42851497534402   12.47787041196727   16.93750867827178
O         9.80117110363827   14.00311833477847   17.33162074273275
N        10.51741188293471   10.83203149512862   17.71290022536270
N         8.26233457650770   10.89216527849362   14.30671561310360
C        11.56677028884128    9.98180845466709   17.59541289272309
C        12.48173215796851    9.83067899994485   18.63943198429843
H        13.32386333773699    9.17005626592805   18.51803417257919
C        12.31039947037901   10.52069788197943   19.82102294820585
H        13.01595710744537   10.41492044757090   20.63004247854940
C        11.19591909825256   11.33835410998414   19.95001199556060
H        10.99160312625268   11.87087701126723   20.86459595949135
C        10.33702024952038   11.45512336588650   18.87676873142264
H         9.45602477996831   12.07354829603962   18.96688752561168
C        11.65023168533955    9.27832917270543   16.32671934653175
C        10.68401506693952    9.63511745639795   15.36935302228513
C        10.74253232921153    9.02750025939435   14.12337834343916
H        10.02982970977605    9.27832762439884   13.35065645264200
C        11.71624799227932    8.08677676047725   13.83246930059980
H        11.74258535392375    7.63055995073666   12.85415905194309
C        12.64847031169166    7.72210936699704   14.79101753279304
H        13.39568128799529    6.97740196336866   14.56417549040386
C        12.61874716741225    8.31578267799611   16.03429239054979
H        13.34897843230901    8.02788537759468   16.77490524996637
C         7.34819800475156    9.89069977356078   14.27054139721285
C         6.58954519367435    9.66234818537848   13.12021872464347
H         5.87312348953882    8.85796547813314   13.10650698894529
C         6.76294257474493   10.45704546540587   12.00568521309010
H         6.18240820165279   10.28687308860599   11.11252058390842
C         7.70821490158222   11.47350434286062   12.05685879149805
H         7.88708275851379   12.11698435456841   11.21135449159994
C         8.43001162766716   11.64463844291933   13.22014092139056
H         9.17963229596806   12.42106829878270   13.28040127269632
C         7.26895546529060    9.09138399378051   15.48106203840663
C         8.22362560148551    9.39870529746119   16.46887036852158
C         8.26437126001603    8.60098537108876   17.60346839777614
H         9.00757326471262    8.77206022090651   18.36978588319169
C         7.36020058305033    7.56724291337595   17.78479735695917
H         7.41157928433465    6.96165079691586   18.67739928333970
C         6.38759743464235    7.31073305424722   16.83183763871857
H         5.67319987345002    6.51698999355887   16.98621803251313
C         6.34640977110823    8.06258476378364   15.67707651345811
H         5.59514753988508    7.84798109495565   14.93260179375548
C        11.94656049409612   13.66717168753979   16.54552838961096
C        11.12746243302746   14.26937188736856   17.50408203965831
C         8.94773020658301   14.31998075999466   18.34649208893164
C         7.69815535601772   13.69571401051148   18.28100051272309
C         6.73915148293051   14.00192687200241   19.23653933585439
H         5.76580482491145   13.53749443423497   19.19045564757857
C         7.04057453366874   14.90390204440408   20.24010559901269
H         6.29156217925957   15.16215571497722   20.97208010632345
C         8.30355991208243   15.46416047787885   20.32316954315671
H         8.51473159910297   16.14963778953402   21.12806915816851
C         9.29365981241092   15.16865042258453   19.39282246861401
C        10.69070443641623   15.75567294629803   19.50057788943210
C        11.62474648961762   15.07317156577668   18.51748152638451
C        13.00114600564866   15.27458791757591   18.53955320513959
H        13.43777614789844   15.90996135210105   19.29319716560589
C        13.82884566835339   14.69789654702808   17.59367908136774
H        14.89066508588993   14.88618122110895   17.62980904679279
C        13.31065571639784   13.90012593248556   16.58699892059022
H        13.96639439299931   13.47806946990672   15.84148499102611
C        11.21822204946754   15.56978870563306   20.93112313706840
H        12.21009451187809   15.99822172439666   21.03444059359801
H        11.27188460205269   14.51154395210425   21.17934808469131
H        10.57270518947756   16.06196683791665   21.65158070710354
C        10.62754549481870   17.25221494464315   19.14950639943330
H        10.26304181655289   17.38775411365068   18.13249715343060
H        11.61534579054030   17.69967501651215   19.22208258989358
H         9.95821882334726   17.77342764912221   19.82909370412601
C        12.24488827851462   12.06187460035822   14.19925522793180
C        13.28253858305027   11.32373215566051   14.76278294557562
H        13.37450843709565   11.26267150623377   15.83802665235175
C        14.19211804183972   10.66628620025057   13.95672530982203
H        14.99823985696021   10.10518207973761   14.40486277437742
C        14.06677010503872   10.72162998652318   12.57863683763803
H        14.77549233264824   10.20523173531653   11.94979195022758
C        13.02854581917044   11.43976296718155   12.01026795670019
H        12.92549940529135   11.48391862611256   10.93640456600272
C        12.11932899393588   12.10229453177741   12.81431462172464
H        11.31698783386174   12.66641371481141   12.35848990820446
C        10.55704856273201   14.32887220755254   14.36008045452414
C        11.57469541250578   15.09510417099390   13.79673734303534
H        12.59968148622641   14.75709822132513   13.85565979031752
C        11.27193895283038   16.28367858718590   13.16086001172231
H        12.06325781189329   16.87222881454824   12.72165143901329
C         9.95866101206374   16.72477170064397   13.09060830641082
H         9.72855814439459   17.65507594116094   12.59414422767334
C         8.94645424262934   15.97317399921809   13.66158364585824
H         7.92123683460155   16.31001148107487   13.61750850953027
C         9.24689785779197   14.77976668004289   14.29464696752218
H         8.45922019166043   14.19401403983373   14.74555735490079
C         6.16000277618241   11.44307902259568   17.76631456659785
C         4.85526585792412   11.27981309473575   17.32034399760264
H         4.49933226727507   11.81202489883450   16.45148198295855
C         3.98539065886378   10.44447479631426   18.00084993611891
H         2.97312408777946   10.32787666606419   17.64380860217415
C         4.40291166340243    9.76876394617377   19.13326469213265
H         3.72057736914440    9.11987927038933   19.66023161613607
C         5.69950673760680    9.93547623216841   19.59132436931638
H         6.03166403385234    9.41901039552466   20.47921198574651
C         6.57169835037887   10.75962034160220   18.90916195148958
H         7.58286283309830   10.88151075936533   19.27080532905795
C         6.39906634167477   13.49717624570062   15.81176804179313
C         5.76866178140021   12.88399929813706   14.72989760327561
H         5.85619722744852   11.81674208345551   14.59211241166025
C         5.01398872768120   13.62534909311373   13.83973453463589
H         4.52759294586972   13.13190957992378   13.01135011688611
C         4.88018120364215   14.99292071923858   14.01239666513718
H         4.29058060164868   15.57212796464803   13.31852960751333
C         5.50565263742682   15.61183562074021   15.08156991598686
H         5.40280383651610   16.67708325745884   15.22614882053475
C         6.26268158277573   14.87353862380508   15.97409269547908
H         6.75070449100215   15.37632843332102   16.79601196241676

