79
CSD_code = SUZTEO | q = 1 | S = 0 | Stoichiometry = C41H34N2PRu(1+) | MND = 8
Ru        2.49101619228013    6.58460014509447   14.50034865261929
P         4.17615953199466    5.87469821691017   13.09673806365142
N         2.53769781223815    4.00791995123447   15.84996593154917
N         3.87953957992475    4.39658072023723   17.83708537085638
C         1.33297970573036    8.26711253716203   15.43201304204564
H         1.26358402989667    8.54187591499271   16.47649733349966
C         2.19332195202499    8.85235308766475   14.48344371591634
H         2.87246295854378    9.67046563414165   14.67461603034015
C         1.84148423211559    8.33257176619798   13.20580335299791
H         2.23077016587036    8.69131260338491   12.25950764505390
C         0.73539078130693    7.46114267049879   13.36078252608692
H         0.12294248535647    7.06095429714296   12.56570552979247
C         0.43855170593745    7.39262189646472   14.74386678709866
H        -0.43532169785928    6.92371624372408   15.17924481001602
C         2.01986345063352    4.66545423164835   14.75427367346264
C         1.19676204496960    3.89899290868164   13.91750742319453
H         0.75827247387632    4.38042012576843   13.05612474942336
C         0.94704187456494    2.56641985135847   14.14976100088090
H         0.30006079123164    2.00231865111649   13.49708380341099
C         1.57361727776091    1.93795617599794   15.23184907949658
H         1.44310036287913    0.88490139490062   15.41661514521237
C         2.36956783143291    2.68176158892602   16.05701998923724
H         2.89972308526797    2.22841363085135   16.88171664630599
C         3.34487896043769    4.85100845572505   16.62896530370730
C         3.49433917121489    6.12662930320890   16.13618121072221
C         4.12145693267445    7.16132437421447   16.95662724596479
C         3.63021651361217    7.45753960498255   18.23149389114099
H         2.78974700505768    6.89884127605872   18.62221395686814
C         4.18237213267441    8.48211628566781   18.97605424439605
H         3.78133396606954    8.70916245882478   19.95248100403554
C         5.24369251134956    9.21739558975601   18.47395232513028
H         5.67242902256432   10.01652453531472   19.05835399767276
C         5.74742820628867    8.92568142609506   17.21638433782538
H         6.57475511534818    9.49524350788084   16.82022106381567
C         5.18880415940480    7.91212732719484   16.46271703665741
H         5.57968745312348    7.67292984372204   15.48378901271637
C         3.11470820160300    3.77062872248130   18.77364352790525
H         2.07489960508953    3.61955040542115   18.52846524444577
C         3.63338053829502    3.40245064664441   19.98764074784554
H         2.99663384260416    2.90780529826728   20.70323145352413
C         4.96167346670021    3.68987987878246   20.29436833914257
H         5.38104388930735    3.41322385983264   21.24646126172372
C         5.72686521701008    4.35239719011699   19.33718333674246
H         6.75820912439032    4.59814321932306   19.52943963714194
C         5.17708724739994    4.68365134073961   18.12634967898246
H         5.74006561731561    5.16918208715801   17.34602691226880
C         3.66378394107481    4.79114567281838   11.71883900858978
C         2.52087648773510    5.17609348070652   11.02404506822494
H         1.99250261721242    6.06589604224339   11.34101723357850
C         2.07446805741571    4.44195334538605    9.94178394404224
H         1.18822168532010    4.74903066161500    9.40678470838150
C         2.76985454300229    3.31178141773384    9.54251612573766
H         2.42286556601443    2.73271293842866    8.70058418663728
C         3.91707617658199    2.93182000557761   10.21900629395367
H         4.46816489941027    2.05996389195796    9.89974217143450
C         4.37022194239247    3.66798885444889   11.30021023270038
H         5.27556888684356    3.37029211938410   11.80964544521681
C         5.18253730791998    7.10793760692727   12.19875329445602
C         5.26342696836391    8.41001408908924   12.68078273233270
H         4.70967587467570    8.67947429976607   13.57014415421395
C         6.04446211845183    9.34895217744336   12.03111627700783
H         6.10172310080666   10.35807433521328   12.41115944240663
C         6.74824757078604    8.99330519572559   10.89243832194046
H         7.35339504364898    9.72575197376852   10.38066430993019
C         6.67315427629531    7.69626048775783   10.40911466890659
H         7.22148086331150    7.41826080201212    9.52186833172307
C         5.89599143593215    6.75322855558572   11.05646266729358
H         5.83925482140485    5.74457869732123   10.67404385825525
C         5.45886268499401    4.89028714854845   13.94426589592296
C         6.68997181413531    5.43816706243222   14.28873959372765
H         6.95409080848739    6.42835426045454   13.94527478589551
C         7.58809162118496    4.71059229776673   15.05103018237432
H         8.54418019488771    5.14115733711119   15.30792610488386
C         7.26597852037769    3.43304895810753   15.47825309634232
H         7.96719913573850    2.86804905680841   16.07317719884846
C         6.04810333617950    2.87326992816738   15.12280814126231
H         5.80458389293542    1.86723915939186   15.43252079469011
C         5.14947856140520    3.59645003154504   14.36114053806981
H         4.21050871755245    3.15336722725868   14.05652611850793

