153
CSD_code = SUZVEQ | q = 1 | S = 0 | Stoichiometry = C79H68IrN2OP2(1+) | MND = 6
Ir        3.35394406054540    1.81136864361878    4.53538201953714
P         1.85053183797400    1.15672887928609    2.55620289967051
P         1.97676961546122    3.59199705976818    5.61933222411568
O         0.09156519188139    2.01416641442505    4.62513248582525
N         4.39499703700770    3.02190617286582    3.25790052542012
N         2.64619655003889    0.51293865039070    5.97098128792721
C         5.45915802372048    2.43805496527846    2.65290804798887
C         6.39470696587379    3.20319124736760    1.96210155804641
H         7.25349364082684    2.72705531011121    1.51677743475514
C         6.26274927721956    4.58133651581400    1.88295902593224
C         5.13055678026722    5.15153671380049    2.46562152204691
H         4.96653650798515    6.21641175304480    2.41981024959996
C         4.24080202012526    4.34018942037638    3.13468690688933
H         3.36959903264294    4.77167674929916    3.60751821312336
C         5.56854553612964    1.00235721478055    2.85773534741087
C         4.69277472292278    0.46403584165140    3.81796007195805
C         4.81708897435053   -0.88299814743860    4.12674062491342
H         4.19146954033464   -1.33280128895444    4.88518332833819
C         5.73911663327051   -1.68467303999326    3.47383036771230
H         5.81364229013582   -2.73146189884437    3.72893969838739
C         6.55809907357109   -1.15439595372161    2.49037381135052
H         7.26047577628058   -1.78732754413106    1.97021037542295
C         6.48234587090424    0.18895745337368    2.18822577908319
H         7.12764318098618    0.60003427908654    1.42659930997930
C         7.31451811348344    5.41113153660503    1.26044678943552
C         8.41004540697226    5.79912839842505    2.03440295114134
C         9.40228382517223    6.56980114963933    1.45040488127996
H        10.25211469397410    6.87247654587841    2.04486358346074
C         9.33032627015631    6.95892493680557    0.11976197425103
C         8.23102135078499    6.56343442092313   -0.62935911551989
H         8.16185598687127    6.85922245223987   -1.66615964374733
C         7.21956890569519    5.79441602971930   -0.07652680701047
C         8.50227847178353    5.38925511178840    3.47487023649130
H         8.53519599371703    4.30357546854830    3.56720832823675
H         7.63459043282166    5.74340646602053    4.03217404225833
H         9.39797279673194    5.80099817826202    3.93171685355640
C        10.40364075737975    7.80759074802621   -0.48642688744894
H        11.36491810996984    7.61197702175384   -0.01772389360417
H        10.16767108934321    8.86228848185874   -0.34167401639719
H        10.48656229156517    7.62592760010592   -1.55506765623912
C         6.03593849512841    5.37222459903418   -0.89507343251660
H         5.12092707099070    5.79816854833842   -0.48251033807062
H         5.93621278378511    4.28662235911272   -0.89005415955940
H         6.14105732134714    5.70724912871975   -1.92347349240502
C         3.34293252921360    0.50243664376882    7.13322623797611
C         2.91951237673551   -0.27068903566872    8.21131115982459
H         3.46639745446244   -0.24446826931690    9.13995210525731
C         1.79681868353443   -1.07674538134073    8.11214454076367
C         1.13445390225141   -1.09799338068664    6.88520391272511
H         0.27972557149858   -1.73819711066669    6.73202056607284
C         1.59497348033444   -0.29862742605609    5.86321302270642
H         1.09690085607732   -0.32284767638560    4.90523918888286
C         4.52676612956618    1.34709028521435    7.14898625390379
C         4.74412917474599    2.11195693936140    5.98943225150128
C         5.83813747517094    2.96617419482663    5.96980862367995
H         6.04210154807151    3.58832457444879    5.11047669267098
C         6.69862369779681    3.05458210872891    7.05103967400461
H         7.54018083092158    3.73021576741235    7.00949068720013
C         6.48965034882586    2.27726102987357    8.17867212582332
H         7.17029592008674    2.33877594618200    9.01386989583085
C         5.40621538362593    1.42680132094522    8.22993307607369
H         5.24726521534637    0.82669235336818    9.11286990232301
C         1.33326559575357   -1.89203572126338    9.25227728183491
C         0.27855716960911   -1.43476432303318   10.04246717352482
C        -0.14257762990848   -2.20805586230562   11.11295018063608
H        -0.95633792781538   -1.85464057637787   11.72954914196073
C         0.45994820395112   -3.42212046803517   11.40976279640043
C         1.50617284873407   -3.85864618129217   10.60768621861450
H         1.98218786813676   -4.80306812411301   10.82813349438921
C         1.95496867229833   -3.11033587873710    9.53181261353177
C        -0.37388004474321   -0.11777670584103    9.74086172805071
H        -1.13496463413089    0.11060278818222   10.48175369963906
H        -0.84306096686327   -0.13216215635917    8.75753975409488
H         0.36094826090088    0.68725808454921    9.73848012304964
C        -0.01610065876585   -4.25871968914101   12.55569676396770
H        -0.67075995710025   -5.05041390617115   12.19060126928524
H        -0.57423242700318   -3.66034946791309   13.27101670847860
H         0.82202597545000   -4.72896417487692   13.06490510293144
C         3.08343602276210   -3.59901867702676    8.67287007290587
H         3.94787269599006   -2.94118313293904    8.75974396761411
H         2.78849397386418   -3.62039121259359    7.62405514046233
H         3.38340371703401   -4.60010128999731    8.96980558833182
C         0.12971688522488    0.56947818022616    2.80232340922761
C        -0.57167964318318    1.06691691768980    3.90493694581237
C        -0.36171421378945    2.30740486156212    5.87605609159680
C         0.52088743562421    3.09951208987634    6.61483365664721
C         0.15108389669768    3.51031755201248    7.88405595391151
H         0.79603598346869    4.14891503992376    8.46758224533972
C        -1.07005529327012    3.10396870583454    8.39611553564489
H        -1.36695825475823    3.42459818457340    9.38262200624252
C        -1.92278808193420    2.30887368482720    7.65221982994774
H        -2.87538314914370    2.03162119190954    8.07480112545252
C        -1.58644813680669    1.88751092114044    6.36962594094898
C        -2.53538366012622    1.06945489197819    5.51239194096131
C        -1.83376300101116    0.59549056879068    4.25094608310714
C        -2.42602634657360   -0.32230964166346    3.39094038248416
H        -3.41842186340237   -0.68750492713864    3.60152461302552
C        -1.77354056950715   -0.77888065400390    2.25871636960967
H        -2.26519200210000   -1.48164803269440    1.60448532159718
C        -0.48932786194135   -0.35467565882348    1.97149943721029
H         0.03282022275877   -0.73517176077973    1.10660323417783
C        -3.72373307921839    1.96187479007982    5.11556718973952
H        -4.41834578256593    1.41220453529443    4.48567144818379
H        -3.37420795578131    2.83424801194695    4.56579567337632
H        -4.25340883535802    2.30381201435865    6.00077288697620
C        -3.02985243512593   -0.14910130169229    6.30734024286680
H        -2.19466314646471   -0.79972726924250    6.56108057444080
H        -3.74935576042365   -0.72280988823929    5.73154306757523
H        -3.51658680098185    0.16126021401006    7.22678767532540
C         1.57658340539557    2.30326086042323    1.14859561476574
C         2.67727052701775    2.88525433481794    0.52072590573152
H         3.67625581178026    2.65270436523185    0.85959233492383
C         2.50376789186933    3.75302281004272   -0.54177575256491
H         3.36550132455612    4.18102950385655   -1.03044935797860
C         1.22993270301492    4.06962851028086   -0.98296530906690
H         1.09632051694864    4.74704574591804   -1.81237357057614
C         0.13039461904722    3.51375249051585   -0.35210855359031
H        -0.86717898213486    3.75758464862681   -0.68619039232523
C         0.29944626178900    2.63769078605165    0.70530887114657
H        -0.57194306868847    2.21901404567959    1.18632353230548
C         2.51853050123096   -0.31958587656055    1.69301406335147
C         2.41944149532091   -1.54191117638762    2.35585900861141
H         1.92131202763438   -1.59617798074128    3.31341276988704
C         2.93751445290434   -2.69272938459680    1.79661010296487
H         2.84216032082931   -3.63306506205139    2.31858438116964
C         3.58206921359493   -2.63959218122544    0.57181085963713
H         3.99290610925027   -3.53678885328986    0.13517656040543
C         3.69124256559613   -1.43025393593614   -0.09006705095293
H         4.18642040619984   -1.38059425805487   -1.04824061847760
C         3.16305939677562   -0.27663511513182    0.46406970055952
H         3.24443357875127    0.65070446057519   -0.08158335416156
C         2.97789973955520    4.53850029545345    6.81185024599140
C         3.26770659722315    3.98533940964721    8.05662739928865
H         2.82180167601682    3.04234109971398    8.34038907834882
C         4.12520384978705    4.63006001952071    8.92733357859354
H         4.33500460031988    4.19612083770577    9.89338452339698
C         4.71958224770026    5.82545502558971    8.55901714365291
H         5.39256020567029    6.32667295864523    9.23758332446021
C         4.45000755020716    6.37413594707121    7.31685475301691
H         4.91329280686016    7.30476640626389    7.02463343367032
C         3.58817894519390    5.73361893906504    6.44543712083329
H         3.37980965104437    6.17551913212890    5.48071741891733
C         1.07072957440393    4.92713132782885    4.74716893117131
C         0.55372956895708    6.00693815853666    5.45851059959114
H         0.72989371140269    6.08598396704758    6.52205478994901
C        -0.18065820616120    6.97647413941176    4.80282884287843
H        -0.57567074262146    7.81464111178818    5.35696928671538
C        -0.41668979907375    6.87358107862878    3.43981254607567
H        -0.99316506313704    7.63306612927776    2.93401797368149
C         0.08368653016916    5.79464957637216    2.73174863939274
H        -0.09878658978039    5.70171960507241    1.67120324317924
C         0.82401921741273    4.82563593224199    3.38563717210496
H         1.21225865530350    3.97979614138461    2.83667927802387

