55
CSD_code = SUZWIT | q = 0 | S = 0 | Stoichiometry = C20H24Cl2N8Ru | MND = 6
Ru        0.00000000009735   -0.00000000457212   -0.34909366092590
Cl        0.00000001539385    0.00000000417567   -2.74265679322018
Cl       -0.00000002440106    0.00000003453328    2.02097608015878
N        -1.82002068077758    0.83010734875308   -0.35139843398863
C        -2.78780181255989    0.42012878586139    0.48080048863790
H        -2.53853398803577   -0.35566008752212    1.19717759748741
N        -4.01127922898574    0.88457108999680    0.52912457255484
C        -4.36000071009137    1.86249513682909   -0.30377433103253
C        -3.42309632603104    2.36607354081008   -1.20789401963546
H        -3.67462150515846    3.15651144149562   -1.89652389293198
C        -2.15876080491238    1.81695650795334   -1.19720219492618
H        -1.39928418570649    2.14680012071881   -1.89713949621030
C        -5.75698280492953    2.37482051412068   -0.22451951304377
H        -6.29205906426597    1.85008919379869    0.56081717966141
H        -6.26817265214449    2.22469413452214   -1.17422160349348
H        -5.75412717441910    3.44223915178682   -0.01080863808592
N         1.82002068731725   -0.83010734107353   -0.35139844020405
C         2.78780181818558   -0.42012878148231    0.48080048481068
H         2.53853399379223    0.35566009034696    1.19717759514398
N         4.01127923266899   -0.88457108984238    0.52912457142191
C         4.36000071186884   -1.86249513785661   -0.30377433142910
C         3.42309632738128   -2.36607354083747   -1.20789402008088
H         3.67462150531066   -3.15651144226036   -1.89652389302293
C         2.15876080817745   -1.81695650397929   -1.19720219774498
H         1.39928418775804   -2.14680011724021   -1.89713949767844
C         5.75698280640952   -2.37482051543952   -0.22451951419846
H         6.29205906592883   -1.85008919499275    0.56081717829005
H         6.26817265318439   -2.22469413592674   -1.17422160490336
H         5.75412717534834   -3.44223915300633   -0.01080863905415
N        -0.83013173552189   -1.82000953605678   -0.35147738964476
C        -0.42017592462966   -2.78783244097241    0.48068400887224
H         0.35560546707054   -2.53860530914916    1.19708309378293
N        -0.88463002949674   -4.01130797018413    0.52894445188768
C        -1.86254287661411   -4.35998279298008   -0.30398714845928
C        -2.36609509824442   -3.42303374130716   -1.20807511239440
H        -3.15652380567461   -3.67452058593484   -1.89672952734902
C        -1.81696630967441   -2.15870364141546   -1.19731694731123
H        -2.14678774202285   -1.39919370778253   -1.89722883733790
C        -2.37488677857940   -5.75696189249705   -0.22479856139099
H        -1.85017469859352   -6.29207578411159    0.56052528665282
H        -2.22475084171322   -6.26811533235461   -1.17451873294729
H        -3.44230896580690   -5.75410233295359   -0.01110510294549
N         0.83013173166234    1.82000953110256   -0.35147739118335
C         0.42017592342778    2.78783243544347    0.48068400989797
H        -0.35560546699698    2.53860530254012    1.19708309603528
N         0.88463002855570    4.01130796490043    0.52894445364724
C         1.86254287485838    4.35998278917221   -0.30398714737483
C         2.36609509558835    3.42303373790718   -1.20807511228953
H         3.15652380293273    3.67452058324202   -1.89672952720170
C         1.81696630589236    2.15870363814693   -1.19731694888199
H         2.14678773823732    1.39919370519162   -1.89722883962764
C         2.37488677697280    5.75696188918964   -0.22479856040042
H         1.85017469765870    6.29207578115878    0.56052528784113
H         2.22475083993290    6.26811532972998   -1.17451873162276
H         3.44230896437570    5.75410233030400   -0.01110510261104

