49
CSD_code = TABHOT | q = 0 | S = 0 | Stoichiometry = C21H24CrO3 | MND = 9
Cr       -1.37114864243333    1.45914006147893    7.24683421938306
C         0.42409150539342    1.91664584159955    8.57083896102584
C        -0.75801082135927    1.96209401117355    9.36425969802839
C        -1.80611287049403    2.82347874288209    9.01734564493436
C        -1.71009106547282    3.61515341082289    7.83711219150046
C        -0.54968054821755    3.57415502969153    7.05433605988666
C         0.51384279423605    2.69638567905416    7.41113378765144
C         1.57034885547102    1.04799342950568    9.03643323873879
C         2.87129712339651    1.30498200160219    8.28330835445535
C         2.57628540271643    1.40001523431801    6.79522556167644
C         1.74510369689036    2.65097623142548    6.54120038103563
C        -3.03434054375013    2.97267027532024    9.88594877385148
C        -2.89553721828065    2.31060371264578   11.25274296993003
C        -2.27781546451127    0.93249034125397   11.08011397409225
C        -0.84260809077298    1.09738526117906   10.59714260908593
C        -0.36931483303217    4.47105556057788    5.85090077316770
C        -1.42974685882956    5.56165649426916    5.74230348461189
C        -2.79785423126604    4.95669369493297    6.01205726742833
C        -2.85979901790008    4.51970106611339    7.46997050010543
C        -1.12884707197212    0.97689990195708    5.51522661147252
C        -1.34518515560217   -0.34092388033345    7.46828840205700
C        -3.09820281536466    1.11028852449893    6.81637107797606
O        -1.01399029076568    0.62921998654414    4.41508395822703
O        -1.35645837549353   -1.49645694362714    7.56251563964649
O        -4.18495677902627    0.84188891111226    6.51427137487094
H         1.29056385437259   -0.00230590663859    8.90349105309311
H         1.73609317639743    1.20847255523905   10.10588919001216
H         3.57627725929379    0.49891335497952    8.49164587673671
H         3.32387916443471    2.24054974309869    8.62308626809417
H         3.50080900838985    1.44858328982126    6.21805108714552
H         2.01516089753974    0.51940319965498    6.47316243061653
H         1.45143133657389    2.67627385038279    5.49011104273137
H         2.36031759560951    3.53887879827823    6.73443020438215
H        -3.88779155266846    2.52563153192412    9.36553670650314
H        -3.25561110931095    4.03545791448941   10.02187569890632
H        -3.87702285065121    2.24277666153538   11.72410768794199
H        -2.25527829420318    2.91570797987930   11.90037486062053
H        -2.28856129396159    0.38129710825497   12.02155333112530
H        -2.84665034084502    0.36292645148942   10.34117445650601
H        -0.24113896342772    1.54569829843640   11.39805919112667
H        -0.42359277704260    0.11246812266069   10.38259936624511
H        -0.40663194027070    3.85526811157213    4.94620409730069
H         0.62093922939755    4.93465128665557    5.88916222160551
H        -1.38916316452511    6.00917629799627    4.74821211214163
H        -1.23287021913758    6.35151677603578    6.47229950192652
H        -3.58923413097844    5.68008199986491    5.81039711399776
H        -2.95166452864269    4.08902073706707    5.36587833552511
H        -2.84425598753734    5.40784870980658    8.11432350814084
H        -3.80407305236633    4.00121054751765    7.64660914273549

