79
CSD_code = TABLEP | q = 0 | S = 0 | Stoichiometry = C28H44Cl2N2O2W | MND = 6
W        -1.32604004438021    5.12178485405516    9.50582645064413
Cl       -0.46324485802948    6.32515712216783    7.65752149158833
Cl       -2.83915365738135    3.45078728536511   10.26154990667883
O        -3.26562405126119    5.49281451026142    8.09768874027566
O        -1.37601639186778    3.47774284811558    7.70493715249267
N        -1.81098496164607    6.46519651066650   10.58481620059196
N         0.19581225506796    4.44000460211554   10.15383603231452
C        -3.72378962378931    6.83058091977191    7.95909449577023
H        -4.72129369407441    6.83986921107693    7.50566166363688
H        -3.03117582911733    7.41696901403766    7.34393320935827
H        -3.76892003740553    7.25358777578326    8.96365888533347
C        -3.15344660293217    4.83251926391098    6.84447509662736
H        -2.44401996759967    5.37633869192414    6.20051310678849
H        -4.13895519341622    4.79648660174766    6.35776067296193
C        -2.65297237989432    3.41164397936556    7.08538836507187
H        -3.35568603887884    2.87308495467320    7.74087734049639
H        -2.56895867762438    2.88442835482579    6.12391312145641
C        -0.84624241208366    2.18727370760404    7.97555910048840
H        -0.71444410254599    1.63286962478262    7.03967103995820
H        -1.50748972922187    1.62894457604494    8.64811914343795
H         0.12055857447893    2.33700509450908    8.45787209253371
C        -1.88105787608403    7.32402766076588   11.61292021481006
C        -3.05251170442323    7.39762430100721   12.40162439728180
C        -3.09255277187341    8.27308089126759   13.47131006362597
H        -3.97866746110915    8.32381277768940   14.08690769417104
C        -2.01501046575780    9.08947896237115   13.76372533869255
H        -2.06622631634671    9.77545601941840   14.59632516719819
C        -0.86555374546863    9.02227424789893   12.99184841969915
H        -0.03126017606928    9.66165451343832   13.23655907908796
C        -0.76805188370295    8.14491187119444   11.93017720156593
C         1.27989119905531    4.16357879061778   10.89221407749996
C         1.16210917421101    3.99105426322390   12.29484963817989
C         2.29259498756753    3.67509518238740   13.02412734826484
H         2.21174217836580    3.52248588636553   14.09027334588661
C         3.53252633022034    3.56115305841747   12.41780074051833
H         4.40390756735625    3.32206150426523   13.00942965461154
C         3.65606816883194    3.76522350970862   11.05426800714424
H         4.63045597332123    3.69318043618089   10.59490136690515
C         2.55049004556388    4.05290310490921   10.27676567881420
C        -4.20657936746265    6.47506124025090   12.08526078282068
H        -4.00000853746314    6.00315661163563   11.11195047709810
C        -5.53474088935091    7.22636718262157   11.98622001744012
H        -5.45189337388350    8.06412973100378   11.29592327300815
H        -5.83595842887651    7.61257848542363   12.95669181039273
H        -6.31682845615065    6.55825197436937   11.63062590095675
C        -4.28567323398106    5.35700777307336   13.12735092308031
H        -3.36033834479386    4.78519520888144   13.12337974889809
H        -5.10729574021252    4.68215614920352   12.89631005391724
H        -4.43880860465388    5.76933819354875   14.12255309578599
C         0.45815833743172    8.04205164252861   11.05572813116227
H         0.49468457536282    7.00373612689306   10.67366757821796
C         0.29648031055592    8.98064769510785    9.85374066334840
H        -0.59304892865832    8.70642184229235    9.28723283963158
H         1.15877655591179    8.90961720383937    9.19435662954451
H         0.19435383357349   10.01140305022299   10.18882069117189
C         1.76345991721941    8.32685215559753   11.79430313728796
H         1.82985338196816    7.72704689111681   12.69876968626368
H         1.84408393113070    9.37837828784675   12.06050847333827
H         2.60816683787780    8.07476910172114   11.15720887448837
C        -0.19137032190565    4.12889605583527   12.95082446566698
H        -0.88383138656926    4.56076253424612   12.20301787610681
C        -0.14955214294430    5.08055291641876   14.14692379043255
H         0.24937832747871    6.04505674386470   13.84359663343122
H         0.46637477162112    4.68026675657696   14.94862730490837
H        -1.15411522189270    5.23818367035109   14.53271272994690
C        -0.72332842948766    2.75162252660124   13.35781261354395
H        -0.82473339464506    2.11678712082554   12.47976612126572
H        -1.70018032455800    2.84575144143605   13.82728662071163
H        -0.04498405515469    2.27018477039402   14.05935137250988
C         2.65430169231825    4.33276038696043    8.79580205493858
H         1.65131034041241    4.19875492468758    8.36079189986994
C         3.62446823722842    3.39849716573834    8.07463112832568
H         3.41400481222164    2.35934503777871    8.32075901378219
H         4.65316136994413    3.61662721379436    8.35025611125991
H         3.53210290853993    3.52658973441357    6.99782650748321
C         3.04625255521170    5.79828287654346    8.58354262176991
H         2.29142674683212    6.44648851453559    9.02513007000108
H         3.11490337491517    6.02282494053916    7.52108683430759
H         4.00626056483307    6.00725163734669    9.05165069942314

