82
CSD_code = TABLOZ | q = 0 | S = 0 | Stoichiometry = C30H48N2OW | MND = 5
W         9.73933602713409   10.86220507831888   10.00386911551978
O         9.67692136006525    8.40619573892718   10.43081577368812
N         9.76795113049511   12.64029551930770   10.15417114107111
N         9.60363443418919   10.31263665488614    8.28261024414512
C         7.86817962285418   10.54296680113375   11.15150742065109
H         7.16614587694342   11.38778494139715   11.10840317831085
H         8.13724581519280   10.43188956092959   12.22049605138334
H         7.28245639218106    9.64979331071237   10.89004891509119
C        11.73510147431470   10.41710393656206   10.88270224739165
H        12.27565693260336    9.55620207016047   10.46121568720041
H        11.61034414944374   10.20227451812442   11.96258651486309
H        12.43609646235483   11.26239145061243   10.83063597164398
C         9.92075077994744    7.41966656304604    9.43710646710478
H        10.16052721228687    7.93677067485901    8.50646859681589
H         9.01320077846489    6.81364429400915    9.29820170007365
C        11.06155428979189    6.55558998892147    9.99067001180662
H        10.96396261523812    5.51979682881307    9.67398957764348
H        12.02409885922950    6.93024519432754    9.64561850763682
C        10.92395566066322    6.72031545031118   11.51501954388969
H        10.70749123085256    5.77864945040866   12.01505812218074
H        11.83477511648218    7.13397411098607   11.94487135189163
C         9.75504019350698    7.70871076406059   11.66432499965840
H         9.89792299038114    8.43321437473680   12.46912354647653
H         8.81379713501412    7.16378027873477   11.83332290253283
C         9.47240744828135   10.53951560464471    6.96734162888348
C         8.18950623680264   10.78196011397707    6.40464207203070
C         8.08390735645657   11.01608334569309    5.04867325770664
H         7.11657431232413   11.19856256585782    4.60576633025852
C         9.20553775322500   11.03009355763623    4.23411322134332
H         9.10174016917209   11.22627932490279    3.17687126844484
C        10.45753521125823   10.79046459088633    4.77413139646675
H        11.31939105890434   10.80412886361042    4.12426471590230
C        10.61261738819220   10.53353068067775    6.12266618362134
C         7.00120071202419   10.75792791358792    7.33928678829529
H         7.31436531806368   11.28022863827571    8.26475554119240
C         6.67374149531133    9.30487643089707    7.70826464746510
H         5.81595538917231    9.26674323687795    8.37725759683038
H         7.52803522118516    8.84987575779565    8.20746845852252
H         6.44268096728735    8.73138725357609    6.81195955428230
C         5.75391710977817   11.44123256076091    6.78631169002074
H         5.33043254478987   10.86841727286872    5.96353962405154
H         5.97991191792584   12.44444865285515    6.43646568666555
H         4.99923094052588   11.51330244360191    7.56727009432068
C        11.95568268061773   10.26202638871870    6.76116379004329
H        11.78748849825085    9.53391799395561    7.57001820959991
C        12.98957597294410    9.68163966219276    5.79850447430102
H        12.58088787546527    8.83001835817694    5.25861561952826
H        13.86657627077299    9.35097329640536    6.35225132209389
H        13.31313117269961   10.42910520926283    5.07825772761537
C        12.48770200962671   11.54467350482566    7.41145905604981
H        12.60441107026462   12.32269743975124    6.66069313253223
H        13.45491571988874   11.36064413583906    7.87624363448473
H        11.78418432117425   11.88852261161410    8.18130215812394
C         9.77161963254819   13.97980363204011   10.25643608033750
C         9.61541097922031   14.80543816886705    9.11456142264750
C         9.62329258985786   16.17937490370015    9.26493236084773
H         9.50281951225177   16.81057492853728    8.39637924956936
C         9.78200621320194   16.76453376885560   10.50958662780758
H         9.78582482008466   17.84041108421489   10.60719768768563
C         9.93265195549600   15.96556987976017   11.62984315454719
H        10.05135650897396   16.43046296394414   12.59840365865927
C         9.93117282395047   14.58738701837661   11.52809353695454
C         9.42857072458466   14.16414549580047    7.76144029179448
H         9.51499970095196   13.07367075635984    7.89556320071434
C         8.03421927237327   14.46388627827826    7.20959682977516
H         7.90136863829461   15.53214234720721    7.05034713689537
H         7.27431059770049   14.12111517044848    7.90774500988147
H         7.89845182684934   13.95045302324606    6.26034531679921
C        10.50211218744520   14.61807596521859    6.77145441566533
H        10.44115803543436   14.02157490931016    5.86379896017951
H        11.49154238461230   14.49665583831765    7.20507550563072
H        10.36933389499861   15.66489604078228    6.50664202393254
C        10.08453936735784   13.71151099077650   12.74984955552844
H        10.08178706799906   12.66257511269189   12.40152710411910
C         8.90408257853155   13.89973246500045   13.70463776706818
H         8.86876576196866   14.92071032659520   14.07796450491548
H         8.99101892147339   13.22634812928385   14.55597880875406
H         7.96907671389361   13.69073195986115   13.18936913241297
C        11.41222560434863   13.97679418316176   13.46078891824278
H        11.45000403523112   14.99352331634069   13.84488350582132
H        12.24165751514926   13.84028760755300   12.77034600926114
H        11.53892945329738   13.29123877142824   14.29721575419312

