62
CSD_code = TABPET | q = 0 | S = 0 | Stoichiometry = C23H34NO2SiTa | MND = 10
Ta        4.91872775485797    7.37503522447946    3.08941144276453
Si        2.77642792577225   11.66974455165500    1.96610978333445
N         3.30121316862527    7.98817260512458    4.35974608238650
O         3.63265259798548    5.92074003801888    3.09463400572377
O         5.41844728332097    9.18826755365133    3.74266084227596
C         2.56985700376303    5.80940079097964    3.96370379157868
H         2.78233555906430    5.03466135739883    4.72150815798289
H         1.65382574240596    5.50925432353696    3.42744119490881
C         2.33146604112162    7.13880676260743    4.65395212123530
C         1.26461522522070    7.54179925823529    5.43877137544559
H         0.47216125566108    6.85686823627999    5.69497685036897
C         1.23876082521842    8.86551105142865    5.87526340092309
H         0.42619318777495    9.20570250795391    6.49952732424853
C         2.22666460139433    9.75692163828217    5.47915029281233
H         2.18928688154776   10.79540192863784    5.76729209915156
C         3.26495990895638    9.27567281121335    4.69434966684274
C         4.32125934333079    9.99515751360095    3.90245166268224
H         4.58284161327138   10.98044688539994    4.30671182480063
C         3.58887570902462   10.06769318233371    2.53333979641517
C         3.56965098362474    8.88914825942238    1.93927290622789
H         3.10515454537543    8.75106032777525    0.97108963064424
C         3.08470019679584   11.91075917467425    0.09609192723345
H         2.72508560069037   11.06143617523454   -0.47603990571482
H         4.14256500108794   12.02776414154217   -0.11941043487880
H         2.57468533485028   12.79484219406617   -0.27441779778631
C         0.89562962995267   11.53954210150593    2.29596763045949
H         0.46503526384174   10.69717880846951    1.76347335956193
H         0.37230979803426   12.43498725073324    1.97507132385223
H         0.68828847993848   11.39450816035575    3.35225730757272
C         3.46643135613130   13.18134539066138    2.90808785992217
H         3.07215803579948   14.10898516524475    2.50409822505244
H         4.54891725803546   13.22906863275293    2.83953126007377
H         3.20456358099400   13.14794077245202    3.96143960806642
C         7.37497249562964    7.04178629023655    2.30874881477152
C         6.54394234978731    5.92916577386872    1.95373665333749
C         5.73563667140504    6.33570087838940    0.85492135128333
C         6.06479188565235    7.68127350681695    0.53775976260909
C         7.08299012513031    8.10147961767979    1.42189889069723
C         8.53022941117404    7.02809067787710    3.26532767553403
H         8.58091939239024    7.96671860873816    3.81490081842864
H         9.46933423162915    6.90221884427324    2.72100029205997
H         8.44331549585480    6.21323874195103    3.97986052977892
C         6.72891999186337    4.49997506394358    2.37795425023189
H         5.76423725414209    4.00566905005422    2.48975356682894
H         7.26259926264849    4.43443839321492    3.32366632112522
H         7.30495892794228    3.95363342442274    1.62754744067170
C         4.85119648187308    5.40809001615733    0.07786830461459
H         4.21726520105821    5.95396948502700   -0.61690797219658
H         4.21093252602987    4.84370696929451    0.75545492362606
H         5.45104939630825    4.69729081757162   -0.49468744192388
C         5.55356567718775    8.48167647777126   -0.62030526380719
H         6.31756100346681    8.54948358307651   -1.39801000630930
H         5.29592085885058    9.49306040667049   -0.30877258129166
H         4.67126580522473    8.02102582756683   -1.05791496028591
C         7.71634214313012    9.45533127761908    1.46228955685088
H         7.28904839612562   10.02935994282705    2.28808664740028
H         7.53845227358649    9.99662280522185    0.53640179556051
H         8.79122206115573    9.37749089768529    1.62053219149177
C         5.61990444843676    6.68119453710331    5.18168054476984
H         4.88220853380839    6.76952474696936    5.97722309029432
H         6.48284512594582    7.26926945530185    5.48158246009905
H         5.91902587913180    5.63558910686080    5.13468772741259

