33
CSD_code = TABQUL | q = 0 | S = 0 | Stoichiometry = C13H15ClMoO3 | MND = 9
Mo       -3.98281523288262   -2.61267530299042   10.74145683160211
O        -6.32219672712577   -3.48183883735771    8.92311410483992
O        -4.84968887703737   -5.18351673516695   12.21440752112186
O        -5.60581977095713   -1.29641705184677   13.01604374998916
Cl       -4.81830452701522   -0.42960055019955    9.80093927754409
C        -2.19075199803685   -3.50193946156145    9.53708374548214
C        -2.00701823311936   -3.76242758292148   10.93818134958829
C        -1.82264217020330   -2.50253875948059   11.60916383335316
C        -1.96638599562329   -1.48378668802643   10.65294835123233
C        -2.19506629472199   -2.10824725263760    9.35768751571228
C        -2.18848236965305   -4.55101288626894    8.46540603706478
H        -2.69286644593809   -4.19865349956414    7.56816033356481
H        -2.68838921456151   -5.45819430325412    8.80105197254300
H        -1.15941752627036   -4.80694846326933    8.20203675557051
C        -1.64009572427761   -5.09570547757528   11.51579267427430
H        -0.56635623727525   -5.25698875735714   11.39554174562032
H        -2.16263814628526   -5.90609177779406   11.01050899352232
H        -1.87299917433759   -5.14743397117513   12.57790428454745
C        -1.37392506222524   -2.35251788666262   13.03206661020872
H        -0.29051907062278   -2.48089600104889   13.09222646454900
H        -1.83996441591640   -3.09873656876791   13.67373733626397
H        -1.62290302456224   -1.36768735279441   13.42145089822938
C        -1.67565740833639   -0.02712143500058   10.82597656682115
H        -1.64911153385027    0.24885352249806   11.87826276656226
H        -2.43704732519384    0.57533954420772   10.32954696626506
H        -0.70760164544991    0.21071763183674   10.37967232744903
C        -2.15998487096687   -1.36032293536661    8.06364830420543
H        -1.15314796586026   -0.97475960545294    7.88950857942676
H        -2.84782620820860   -0.51438267220210    8.09234653562143
H        -2.43528656058561   -2.00135397976628    7.22861050378803
C        -5.48606181126391   -3.14884699712672    9.62563822839520
C        -4.51140157962979   -4.23227546212170   11.67052399192564
C        -5.03902685199642   -1.80699244377491   12.16735484312106

