124
CSD_code = TABREV | q = 0 | S = 0 | Stoichiometry = C47H70ClN3PRhSi | MND = 6
C        -1.62547863158109    4.63627405359292   10.64354465006241
H        -2.68884323893837    4.44296630777232   10.55768635416262
C        -1.05951370572316    4.51046995992507   11.91025339491762
H        -1.72233082931625    4.22823647299461   12.72704090526524
C         0.16781919993262    5.26188036824333   12.37368906797141
H         0.50301654188854    4.81559834108552   13.31291174290962
H        -0.10889496770219    6.30035415390551   12.59098469797096
C         1.32882156975301    5.22792040155129   11.36073513190271
H         1.28597604469048    6.09446442963458   10.69923128836091
H         2.27239920626170    5.28686116140943   11.90719780690772
C         1.32504485012486    3.96765861491897   10.52748166556500
H         2.14264036154556    3.27898564872489   10.73750036616039
C         0.69213654343479    3.84018846050015    9.30691058496780
H         1.06645622345795    3.07925076741580    8.62168925359395
C        -0.11889818228834    4.91871574127971    8.63278427233708
H        -0.67037401121964    4.46352847474659    7.80582335797657
H         0.56048890446474    5.66152996645686    8.19960135933423
C        -1.11468906201731    5.59546634598080    9.58768987347761
H        -0.65749746569440    6.45825675484647   10.07387272277735
H        -1.96212416716625    5.96809753218412    9.00734640394757
C        -4.34497022818160    2.52905159187222   11.55067184169981
H        -3.73307957408582    2.85848379816455   10.70515953320983
C        -4.80314932353131    3.76304377431069   12.33831569539640
H        -5.55523629596997    3.49776612811048   13.07738540283549
H        -5.23981658124327    4.49421052027097   11.66247255724207
H        -3.96177700334750    4.22166957886119   12.84986465323525
C        -5.57004924608003    1.82372249115317   10.96380329174932
H        -5.27187902442555    0.97761638456456   10.35144548561176
H        -6.11400909835629    2.52525768191916   10.33454984784584
H        -6.23938418167854    1.47708739658638   11.74643372920056
C        -4.04915615304385    0.96757892933919   13.45180326353278
H        -4.79261990345457    1.61031443139480   13.92898998777866
H        -3.25243061574664    0.77380964976934   14.17085738885812
C        -4.67864131824827   -0.38360576684205   13.05210432360381
H        -5.69706905620840   -0.44394210179951   13.43535162049444
H        -4.72721542479726   -0.42423103059603   11.96759732824301
C        -4.35123424366196   -2.09898172364146   14.78189598347110
H        -3.82391775917553   -3.04945511028955   14.87304468285195
C        -3.96439607650919   -1.20925424881235   15.96721383331109
H        -2.90500173540615   -0.97112875419143   15.93759644301861
H        -4.17615452168216   -1.72818613736066   16.89942878594285
H        -4.53035049540748   -0.28097824841891   15.95381751827295
C        -5.85635387938237   -2.40137108011680   14.86806925649115
H        -6.42816617426264   -1.51775918093790   15.14294429617954
H        -6.02370276832984   -3.15519510419978   15.63340804681651
H        -6.24112296949531   -2.78094046987052   13.92527412275534
C        -2.40038303719995   -0.12734087222139   10.51326866894609
C        -2.74558939272190   -1.38197985466031   10.83105756833125
C        -2.57218173041817    0.46368165351640    9.12470832583737
H        -3.59138444577022    0.28091551908428    8.77088153088966
H        -2.43620614170448    1.55499124324243    9.20165904368387
C        -1.58374960163918   -0.02756410195754    8.06285639486163
H        -0.57450818974360    0.26543022467505    8.33143925029074
H        -1.83353473957841    0.42298860906978    7.10340688675517
H        -1.59591831801107   -1.10743600648239    7.95128302807587
C        -3.36099693625868   -2.31284792468587    9.80522199663585
H        -3.12762826591526   -2.00557955268567    8.78985854961647
H        -2.96558374774913   -3.32003834924760    9.95009489789809
C        -4.88142127949334   -2.36861710118391    9.95421554098949
H        -5.15578575464276   -2.67052549757130   10.96032479859558
H        -5.29799335942435   -3.08807458763832    9.25233003796921
H        -5.32711320424092   -1.39696150802520    9.74899157119363
C        -1.17324618126190    0.58667095008608   13.20879743024050
C        -0.58212648982570    1.64891415358128   14.13810527147190
H        -1.14983457787446    2.57743179580818   14.17573971558436
C        -0.45768948258011    0.86074150376709   15.44297691050798
H         0.13445055865760    1.37019415340859   16.20315999742125
H        -1.41640742067941    0.56890698919611   15.87004470662341
C         0.28637333369213   -0.29263758222860   14.76723489370078
H         0.56462245904033   -1.14719183091111   15.37757627504794
C        -0.67170457324165   -0.59529025689968   13.63355777130428
C         0.90182871506552    1.82234603067279   13.77363749658122
H         1.02406545668655    2.05637453323577   12.71270387881414
H         1.34937219949358    2.62589554617862   14.36053561225084
C         1.49254639295782    0.45367049969651   14.15325149946186
H         1.88612456474324   -0.07367414936263   13.28890555190666
H         2.28911450144920    0.55039783982606   14.89182192889880
C        -2.81408697877592   -4.03251042669761   12.39066724908976
C        -4.06480051574011   -4.60723659622213   12.59803722341130
H        -4.89143233221813   -3.97749089901213   12.87902055551239
C        -4.28127910442144   -5.96571674613253   12.45671360475067
H        -5.26638241806688   -6.37494059441780   12.63192091065422
C        -3.23778042689101   -6.79829317602657   12.09226695390118
H        -3.39753451310813   -7.86149587244257   11.98578496505546
C        -1.99006750778992   -6.24863062977560   11.85792101503693
H        -1.16590417323756   -6.88124130843038   11.56091231104555
C        -1.78770696825065   -4.88687093783191   11.99941791555507
H        -0.80702007634729   -4.49259394620805   11.80155063291854
C        -0.03095018409329   -2.89359257647436   13.51255511766356
C         1.01721909067032   -3.04337775054639   12.59129058735097
C         1.92827318191503   -4.07632900875547   12.76711805052891
H         2.72064199852822   -4.20967950816509   12.04762926304143
C         1.83426159441033   -4.93860362061530   13.84074136778650
H         2.54764418136501   -5.74091476470658   13.96018760359417
C         0.82704167083569   -4.75922100198523   14.76493693341483
H         0.76512808236565   -5.42144425598981   15.61506910499964
C        -0.11178380192478   -3.74521977124797   14.62055544676593
C         1.16890339689753   -2.12983950974897   11.40279171842317
H         0.61002687248994   -1.21307173027010   11.59298129548621
C         0.58460700892097   -2.75897533455703   10.13563401906895
H         1.04843769354316   -3.72277089796851    9.92978947498740
H         0.76791083887940   -2.09343134886231    9.29632960919147
H        -0.48932389784553   -2.89461725019526   10.23124859563908
C         2.63158820819199   -1.75064168189737   11.15099178672517
H         3.15341303775313   -1.54765489885844   12.08430193815454
H         2.66005708971405   -0.85592155211776   10.53500019831480
H         3.16260055379636   -2.54129752207244   10.62559693968499
C        -1.17719765105812   -3.59805909662806   15.67834601762053
H        -1.80664176472642   -2.75383545691276   15.39804050736351
C        -2.04502136850847   -4.85661817969792   15.75981854120664
H        -2.46062305820449   -5.10303220250043   14.78627470362842
H        -2.86209870830537   -4.70525254304725   16.46301393128473
H        -1.45955318993167   -5.70643182987196   16.10207152111234
C        -0.57056286490382   -3.30487966304123   17.05429599630238
H         0.05301070290081   -4.12970499676488   17.39006505971653
H        -1.36447066397699   -3.15829695316216   17.78393488805319
H         0.04054415553240   -2.40569608527396   17.03248092280977
N        -1.01236815087978   -1.87594376812104   13.28117127517913
N        -3.46179049449017    1.69588799846113   12.34957578759481
N        -3.94170955150272   -1.54792068539632   13.49666120304354
Si       -2.60024995450629   -2.15061292198454   12.56249613898447
P        -1.94742792860708    1.21899424300680   11.71401373248994
Cl        0.62503389085849    0.91567348876886   10.32127023576884
Rh       -0.50685784520123    2.79877434476036   10.79338629955561

