38
CSD_code = TABRAP | q = 0 | S = 0 | Stoichiometry = C17H16Cl2N2Pd | MND = 4
Pd       -4.73417500279249   -2.14645813260938   -3.64786739026709
Cl       -4.49127246439338   -0.81941863975971   -5.42264506426584
Cl       -6.89692209810841   -2.42520049357904   -4.04652412485417
N        -2.80597395947702   -2.09168051320111   -3.13836781218282
N        -4.89822369833227   -3.36619594912735   -1.89856851512835
H        -5.43443229515337   -4.22132900989927   -2.06663408704848
C        -2.50725890340685   -2.95562711005860   -2.12517907081356
C        -3.55646414809212   -3.68273437282549   -1.50788848029969
C        -3.25879569177129   -4.66224186200368   -0.58879177716445
C        -1.93302437280276   -4.88965312822107   -0.19644292966581
C        -0.91066081112562   -4.15065110368171   -0.72591027395266
C        -1.16745671904127   -3.17987843319774   -1.71468577388160
H        -4.04817966101186   -5.26252474966398   -0.16249305349650
H        -1.72915595663676   -5.65459326150617    0.53666840605228
H         0.11031223397903   -4.31527830713383   -0.41627188376582
C        -0.15093717079241   -2.43248460003049   -2.34814965835285
H         0.87542170351232   -2.57577693113527   -2.04557624257894
C        -0.49015481843637   -1.55382872900248   -3.34313835301020
H         0.25773493682994   -0.96874088365333   -3.85378030556786
C        -1.83290284345492   -1.42246749471914   -3.72063861312526
H        -2.13052030312089   -0.76120759828250   -4.52666936704324
C        -5.67373679806749   -2.55464153210613   -0.90986995951182
H        -6.66835939463130   -2.44192336649752   -1.36497696714382
C        -5.06080353999403   -1.16181503985731   -0.76361029893992
H        -5.60569353821146   -0.60753213114479   -0.00273510141476
H        -5.15052496704459   -0.61518713573928   -1.72019161144317
H        -4.01082025943959   -1.20946823346811   -0.47545608000959
C        -5.82465154199595   -3.30669319823523    0.39324438960161
C        -4.95552001978977   -3.14138835982834    1.46503775077423
C        -5.11214235719153   -3.89450713064273    2.61643440474290
C        -6.13400351836723   -4.82294063022893    2.71116227966427
C        -7.00660851992663   -4.99368589107952    1.64896978908209
C        -6.85074178598477   -4.24123610812488    0.49945020385373
H        -4.15131952447528   -2.42405529940709    1.41098904123945
H        -4.43081432462113   -3.75512782846058    3.44262295945920
H        -6.25349172909898   -5.40905494719489    3.60986199381374
H        -7.81052285646536   -5.71115735605199    1.71672082930580
H        -7.53660328106511   -4.37081450864027   -0.32629925266195

