57
CSD_code = TABSOF | q = 0 | S = 0 | Stoichiometry = C14H32Cl4N4O2Pt | MND = 6
Pt       -2.08942270702250    0.74108561209332   19.84387320934573
Cl       -2.86539281207022   -1.38825672137786   19.13221802086776
Cl       -2.69728357887779    1.64463549541550   17.73054728339553
Cl       -1.32626776302931    2.85321266416477   20.53894831902263
Cl       -1.49083511763784   -0.14933781556068   21.96025256471170
O        -7.25720036975620    4.75304065589521   18.07320548301276
O        -0.68098195982933   -3.31241243818310   17.82423780878543
N        -3.91277748593019    1.06565404823386   20.70299269207417
H        -4.16539641668492    0.34688650138840   21.37499585054447
N        -4.48429479549702    3.08313463413692   19.82354180240347
H        -3.66109894479423    2.98195582077838   19.22674653205258
N        -0.28448776715543    0.39470885390298   18.96993119575233
H        -0.03383895761776    1.09657133945932   18.27850777697534
N         0.25997909666219   -1.63620915471533   19.84198229212384
H        -0.46252095526631   -1.45170854211777   20.54359042612741
C        -4.73528880120141    2.06875654701860   20.63623584964730
C        -5.97779177855805    2.12243473370494   21.49432714833672
H        -6.84054385710771    2.23659196004553   20.83419334768663
H        -5.90910618269020    3.02419968178149   22.10867344861287
C        -6.18934692315103    0.91397097114724   22.39878658849371
H        -6.28794842260394   -0.00039662098745   21.81723578119169
H        -7.10671870108583    1.04823600482480   22.96675598885599
H        -5.37181980710915    0.80385380169378   23.10843797801002
C        -5.32813020294302    4.20511626545973   19.49390129660657
H        -5.98666470280126    4.43965228279245   20.33621622523596
C        -6.21130992814132    3.84080753546797   18.27505854789865
H        -5.57721787642485    3.74746146870545   17.38438426286164
H        -6.69295046463662    2.87546990863129   18.45070884888811
C        -4.43501465241107    5.41430929311254   19.20279413326637
H        -3.76291452147245    5.16512905548063   18.37903512346842
H        -5.06182414519439    6.25339592395864   18.89246915895205
C        -3.61508946412835    5.82026760253793   20.42191426258371
H        -4.26589913465150    6.06724315097889   21.25810764411121
H        -3.00929364693958    6.69218701627645   20.19094905535836
H        -2.95014528516341    5.01428143711088   20.72034885960174
C         0.42402178942917   -0.69954995748446   18.92502634558623
C         1.50193099524036   -0.83554089017384   17.88094352468581
H         1.28916732734633   -0.15031027766590   17.05913583211301
H         1.48779265199605   -1.84822903170346   17.47897031106547
C         2.86911295673884   -0.50323910538305   18.48153029863954
H         2.87835700491972    0.51613585378337   18.86026312291503
H         3.64024659873638   -0.59652004020584   17.72133248146594
H         3.10813260360841   -1.17220706212514   19.30386062622812
C         0.71426331673597   -3.00701062152504   19.80715137706080
H         1.65657304070813   -3.06339634493589   19.25718338409403
C        -0.34738059606851   -3.86259005468777   19.06913560575038
H         0.06606314475822   -4.85764011765885   18.88246861160028
H        -1.23423646335117   -3.95906391502024   19.70450220084915
C         0.92408159750936   -3.49489948207529   21.23978169889169
H        -0.01136353794427   -3.38106368526725   21.79029069244383
H         1.17503066894306   -4.55627855688725   21.21513177489158
C         2.02569716381219   -2.71595417374839   21.94891851226724
H         2.97651702653643   -2.83557749969690   21.43338935511440
H         2.14360812362202   -3.07498192726304   22.96756495603477
H         1.77768652425209   -1.65838327888588   21.98671164952849
H        -6.89176198156834    5.59506268340126   17.78114167213209
H        -1.38850092298465   -2.66039148815236   17.96216115980662

