66
CSD_code = TABSIB | q = 0 | S = 0 | Stoichiometry = C28H33Cl2NRuS | MND = 9
C        10.28123863666215    1.93982775950898    5.61275097818931
H        10.95986782097033    2.78893661783309    5.61638327863740
C         9.21432971061718    1.90725614858086    6.52773931375196
C         8.40525256656536    0.73828745113364    6.55759251164757
H         7.59919287232030    0.67998428748708    7.28100947036526
C         8.66907728779374   -0.34430740328527    5.72127075460379
H         8.07309098104402   -1.24746850930108    5.80093686442824
C         9.75502376757920   -0.31233386831384    4.79940861993977
C        10.56900095030880    0.83001942200413    4.76993190482184
H        11.45932857757284    0.85167100097919    4.15351160006097
C         8.93029325753886    3.04092132219360    7.46395724104018
H         8.93321686206365    2.69294503268025    8.49632731793161
H         7.94134202018628    3.44870635038727    7.24734581889118
H         9.66459312030118    3.83547584774089    7.35391773201628
C        10.10182075454270   -1.55750522607418    4.01651072009964
H         9.24682982269529   -2.24009005041429    4.07005672916301
C        10.37609858857365   -1.27661079136303    2.53989488631146
H        10.57788498291866   -2.21087446600483    2.02173600798880
H        11.23664225862962   -0.62387985825919    2.41187353138168
H         9.50082010929969   -0.81402089583140    2.08880938746526
C        11.30491424393020   -2.23511125309564    4.68336427173480
H        11.52738827725655   -3.17233234466655    4.17948232448604
H        11.09777744119286   -2.44737351243492    5.73065490811197
H        12.18474110656155   -1.59702381496117    4.62871024912736
C         8.73375868806546    3.22252295799617    3.39366254577185
C         9.75367892152357    4.73335115938353    1.97925491752629
C        10.50368984313447    5.21740493717112    0.91181872516409
H        10.89614446813166    4.55147520675530    0.16282515648305
C        10.72133903020301    6.57812823159354    0.82377709694928
H        11.29716078352871    6.96561909361459   -0.00251502399859
C        10.21287081822082    7.45733094926867    1.77544035712949
H        10.39641733078976    8.51595656580155    1.67683908802128
C         9.47828605849571    6.98712753966393    2.84647841243125
H         9.08042321677236    7.65298472681845    3.59475322948798
C         9.26078882998944    5.62249962755187    2.94197775639479
C         9.72622039883317    2.33464238781621    1.35335909246235
H         9.17337696994181    1.45463191785886    1.70337638246729
H        10.79679376796865    2.13833203196226    1.43137069157376
C         9.35299213108706    2.63280587578349   -0.08234996450582
C         8.11574972415933    3.20763790877815   -0.38548399128999
C         7.85579756986029    3.58989330247181   -1.70450759957854
C         8.80132318735465    3.33964181880526   -2.68315194435656
H         8.59547058029037    3.64574049699940   -3.69944547605103
C         9.99194246965592    2.68482943629129   -2.40981769569950
C        10.27196817510329    2.32004692768381   -1.09326543651193
C         7.05299227956173    3.41683732405099    0.65231030331708
H         7.09969722748463    4.42510966189792    1.06807243780995
H         7.12608274413405    2.69668497101640    1.46404491181369
H         6.07101428698059    3.29466548757121    0.20439279494282
C         6.57268949016109    4.26848919728058   -2.07985966034388
H         6.61713775444916    4.62230899185753   -3.10700855460909
H         6.37680601791247    5.11725254077099   -1.42714635552146
H         5.73397944831142    3.57765939827409   -1.99548409087887
C        10.94357619482993    2.40655522395199   -3.53852840156438
H        10.56412676201330    2.83871746592356   -4.46093106783612
H        11.06108609038625    1.33424299792641   -3.69320120507322
H        11.92564423398268    2.83477245998729   -3.34122979614933
C        11.54580398259595    1.58555780233322   -0.76623199690071
H        12.24688532857285    2.22409146575872   -0.22505126483667
H        12.04061671606477    1.24838394411803   -1.66987119930953
H        11.33303872273014    0.70794587791008   -0.15826558002578
N         9.41651850495221    3.42404331996651    2.26537315422026
S         8.38209775660154    4.73782922881636    4.16634663829131
Cl        7.24816310149723    0.45839604665902    2.72104170016239
Cl        6.37202073039497    2.62501894967569    4.99693996578968
Ru        8.39246364595068    1.57433529647371    4.43991452446251

