43
CSD_code = TABVAU | q = 1 | S = 0 | Stoichiometry = C10H26CoN4S2(1+) | MND = 6
Co        2.51372324077652    2.30975200308930   10.56730774347600
S         1.13896123620246    1.20513069743808    9.15767798567737
S         1.41215796219890    1.40407276171022   12.31750447459948
N         3.69986956322553    0.68012784319214   10.54278503081344
H         3.32927367472025    0.21662180175189   11.37859923115970
N         3.79443508714612    3.27482057216756   11.94614938792982
H         3.65276597469937    4.28258089228776   11.93566961647844
H         3.40315157121085    2.93419428489798   12.82875151060437
N         1.16833705277063    3.81028833627888   10.61283626298018
H         0.51177918132363    3.43955266012150    9.91839672228365
N         3.46622540312614    3.15790435579913    8.87994674553648
H         4.41554705744079    2.80549508548151    8.77802787642757
H         2.91569392518425    2.73561588559139    8.12712671102739
C         1.89919352916973   -0.42282785005828    9.32122538601664
H         1.49579712019285   -0.90561523557850   10.21300263957183
H         1.62685598739772   -1.00036726497364    8.43857928933093
C         3.39896607931149   -0.23333213285763    9.42436970861542
H         3.89300468006458   -1.20103125577362    9.58278983417297
H         3.78356896268189    0.20128557535560    8.49700182861567
C         5.15061359227872    0.78146368826331   10.74541296943955
H         5.60083889696040    1.28183340980264    9.88324858303638
H         5.57311402816710   -0.23002409260017   10.79454051827637
C         5.52131612504992    1.51928298528296   12.02685584524590
H         6.58648522119088    1.37562991939199   12.20801528875263
H         4.97706510606340    1.08445572809501   12.86774003259574
C         5.23773655000216    3.01514791733352   11.96176388741024
H         5.70497720551985    3.49963002976882   12.82770735290289
H         5.68334873262934    3.43946655732492   11.05840638490831
C        -0.04383291882730    2.46726432600770   12.24956705849522
H        -0.73472001057184    2.06130420358371   11.50867822834185
H        -0.50994348192546    2.44542752501803   13.23397125059724
C         0.40998125041815    3.86407328758244   11.87689552409991
H        -0.45782697421560    4.52813862520571   11.76945138746730
H         1.05614446704224    4.26715502255837   12.66227220694232
C         1.51127811704484    5.16537641957235   10.16322067038079
H         2.22275191514169    5.60889951538289   10.86571209826881
H         0.60535140321152    5.78428804647067   10.18004228879379
C         2.08675959478189    5.19526823944324    8.75190963342722
H         1.42372696337850    4.65028251529978    8.07682565912142
H         2.12289081262512    6.23267924533017    8.41947336487902
C         3.49021061041177    4.60818935891187    8.66322547869681
H         3.90719690089314    4.84148079499953    7.67600061267681
H         4.13432860388606    5.06801771604985    9.41711568992576

