56
CSD_code = TABWAU | q = 0 | S = 0 | Stoichiometry = C18H33BCl2NTa | MND = 9
Ta        0.61874014789662    6.51261079331124    1.62252121343888
Cl       -0.12515552943211    7.71298393114619   -0.10443984799098
Cl       -1.36356061098990    5.32742706471191    1.73318757460174
B         1.10266838572345    6.39701160102276    4.15427866822920
N         1.31582425824449    5.43421765916427    3.15526386050632
C         0.89468118563830    7.81721379834311    3.46477218517263
H        -0.04294184953806    8.29238498349802    3.77165057519721
C         1.99912377941983    8.86955836053335    3.50003608622066
C         1.77880023877664    9.89311229050098    2.37762235273743
H         0.80968321562448   10.37592821014030    2.48736399786681
H         2.54697644682583   10.66343961575943    2.40803997317551
H         1.81144994955027    9.40837356733980    1.40128003795263
C         1.95720246925866    9.60107942628139    4.85015798303221
H         2.13605791987153    8.90470216815976    5.66450508545597
H         2.72344846572082   10.37283915679951    4.88355219860339
H         0.99018365256375   10.07388624376623    5.00400719553739
C         3.37531139274602    8.21795150108193    3.33838571544884
H         3.54032530580576    7.49210643197397    4.13200070820179
H         3.44760539385098    7.70867413291372    2.37990568705284
H         4.15916062615533    8.97115725051440    3.39127042264458
C         1.44397241064761    4.01700096600214    3.43271139915263
H         0.53805240733364    3.52535659273433    3.05068200697130
H         1.50812069868280    3.83430792044846    4.51012473425472
C         2.67199656905432    3.37667697009902    2.76639558785476
H         2.62797172530758    3.58767172119614    1.69397453677054
C         3.95269928539823    3.97497516850668    3.34349514559272
H         4.82427997839404    3.61290663443628    2.80317038358326
H         3.92459957552618    5.06081353216841    3.27977520752154
H         4.05846930923408    3.69787918327983    4.39043361581083
C         2.64602564686240    1.86371260277293    2.96602207687525
H         3.51120078377349    1.40535130205888    2.49304162898995
H         2.66463353038972    1.61794854121985    4.02573210811591
H         1.74772118474269    1.43324496992913    2.53026417995578
C         0.88292647797059    6.09450384220705    5.70864951506681
H         0.92765039283182    7.01379131667896    6.29584310903925
H         1.67547074112555    5.44399537831857    6.08881330455470
C        -0.46938121136414    5.42123329286655    6.01266455202775
H        -0.50642267777663    4.45295606302791    5.50409071673325
C        -0.61298250079277    5.18651559584416    7.51571592089654
H        -1.54980665252062    4.67908734773697    7.73580207604203
H         0.20343531824453    4.57352480076114    7.89178278130079
H        -0.60366899172382    6.13444382255183    8.05013852697536
C        -1.62866832373136    6.26938690003507    5.49660375484765
H        -2.57971290863259    5.82675536260412    5.78545823899825
H        -1.57906478172138    7.27434034819531    5.91108297626346
H        -1.59795051230277    6.33425508341193    4.41035779230777
C         2.58065361572235    6.05700260457360    0.33483089784695
C         2.98212177534097    7.22924047707236   -0.43727014251419
C         2.63316046693065    7.05237158465776   -1.73540420199894
C         2.04126214354054    5.75605599004535   -1.88236148138656
C         2.03817189497497    5.13854232104103   -0.67585442370402
H         3.32326543757824    5.65828079619269    1.02091517578165
H         3.48642136230213    8.08548332433043   -0.02209886521018
H         2.76644683214014    7.75551395556673   -2.53816981046653
H         1.66994380634748    5.35887385219334   -2.81052683296149
H         1.70830034641455    4.13104164824673   -0.46884786503426

