63
CSD_code = TABXOJ | q = 0 | S = 0 | Stoichiometry = C21H33BCrNO5P | MND = 6
P         0.32375661807276    3.39092702056729   13.00627893068096
B        -1.28711286570793    2.78755821278634   12.98661492705580
N        -2.53648379170421    2.37192899609542   13.29948265171364
C        -3.70039583238215    3.21828803711074   12.95641276606418
C        -4.72927759582809    3.22024814610697   14.09514675541320
C        -5.08315215346342    1.82190471821934   14.57564634156632
C        -3.80750594635370    1.13521245168660   15.03682855638221
C        -2.74007448914650    1.05215891251918   13.93696697726483
C        -4.33111300574159    2.76505978161910   11.63227956870550
C        -3.21564577194001    4.66211159222079   12.76982630435499
C        -1.42662986937805    0.62051948692420   14.60200701886084
C        -3.09978884248315   -0.00739481607657   12.88604110609851
C         1.19923004396490    3.04805812207347   11.36265097965445
C         2.55399460547220    2.40553216456041   11.70947793282005
C         2.45947812210136    1.05035936976030   12.39765506028361
C         1.48672157499476    4.40228330613477   10.69203470516968
C         0.25153943000548    5.20992706771002   10.31780483805326
C         0.30851060126241    2.13598998929724   10.50847418628328
C         0.89254713919431    1.75093197319586    9.15246472577277
Cr        1.10512777795929    4.90951542939513   14.78907288744364
C         2.72502608121602    5.40847428359975   13.99584861054132
O         3.74769803179815    5.82085093280325   13.66714810809625
C         1.57013488543620    6.02177372747224   16.17628408354692
O         1.84319731938326    6.71762078608687   17.05589383698225
C         0.24309082054285    6.39349012615037   14.05562536606907
O        -0.27997673958895    7.38269386584343   13.78346217976541
C        -0.46863984316098    4.51066163383001   15.69149386958106
O        -1.42536846585595    4.33365282212656   16.31487423339340
C         1.97575829002451    3.56035334487175   15.74627782169901
O         2.51100410298280    2.86119312516914   16.48694558319083
H        -5.62315501747374    3.74311909884742   13.75165616138156
H        -4.31172449554904    3.78080373221915   14.93458190559861
H        -5.56938394554475    1.24966594237086   13.78450889914134
H        -5.78566614411647    1.88717658530051   15.40815146274904
H        -4.02354768003628    0.12381280205545   15.38451466850604
H        -3.39354149540377    1.69945727894087   15.87555122682839
H        -3.55436241840744    2.59488617846719   10.88993980857648
H        -4.91141286318867    1.85526837190640   11.74009691105845
H        -4.99524346032073    3.54260506543435   11.26292222509932
H        -2.60124816958947    4.75315507532867   11.87766284082080
H        -4.07138096451904    5.32481012100798   12.66610747813328
H        -2.63042646204009    4.98647351810230   13.62850266391349
H        -1.04863174813151    1.40709938308567   15.25252986597583
H        -1.59663547506602   -0.27126983268738   15.20028820645728
H        -0.66857292259446    0.39573588140480   13.85595417953113
H        -2.43330735873732    0.07748733249582   12.03050134625163
H        -2.98268737762837   -0.99887802694347   13.31657689800000
H        -4.12274061901530    0.08559878822099   12.53817315047528
H         3.08442133693600    3.09318053732633   12.37656339978294
H         3.15221168069184    2.31149169120427   10.80019583771195
H         3.44694140597210    0.73018411948097   12.72172452815545
H         1.81966939158270    1.12228541895637   13.27827529712864
H         2.05942536546851    0.28865051429801   11.73282474026238
H         2.09659290076574    4.23693875302969    9.80070197676714
H         2.08596793244990    4.99739620424776   11.38848180994086
H         0.54856456917291    6.18739419950459    9.94476950353734
H        -0.33269262051365    4.71713476928625    9.54424800668787
H        -0.37674345421992    5.35928252396684   11.19660852362547
H        -0.65011325896650    2.63696401549420   10.35230858249136
H         0.10132081857280    1.22586860749510   11.07651571228175
H         0.19599320354620    1.10262680990871    8.62408293788450
H         1.06813842341192    2.62866358037044    8.53681426162904
H         1.83052069079155    1.21494635002100    9.26654407111399

