65
CSD_code = TACCIM | q = 0 | S = 0 | Stoichiometry = C28H24Cl4N2O6Zn | MND = 4
C        10.37866262795528    3.58727026079849    9.68055342057456
C        11.70350019831458    3.04117199342199   10.16759432064242
H        12.33395096411049    2.81088053919394    9.30754029782773
H        11.52088737792443    2.14320154833737   10.75508073491889
C        12.35025339447170    4.10234229215977   11.02416179960880
C        12.34751224388645    3.98507167533290   12.40494228874185
H        11.87530312432519    3.12522961600765   12.85714118156458
C        12.94901057999246    4.94053293303447   13.20589519777839
H        12.94824380937264    4.82445392412570   14.27889863803793
C        13.54779095226290    6.04372652305044   12.62242942777696
H        14.01235897248583    6.80000907600213   13.23733835253757
C        13.54121838674867    6.18989876455333   11.24934570387209
H        13.98037363167879    7.06612572004733   10.79497701281299
C        12.95331585846354    5.22282559177250   10.43558285408057
C        13.75252435789218    6.13946873662113    8.29621216649081
C        15.14744501168740    6.15764299477912    8.47294761591547
C        15.97330914730908    6.92982808230984    7.67710426878684
H        17.03634541570534    6.91593830157030    7.85686243765511
C        15.44314045732879    7.68566532241957    6.64623810388383
H        16.08894963734951    8.28335545351545    6.02416856360593
C        14.08075414642319    7.65496190816346    6.40414077505348
H        13.64908103955477    8.22150200594824    5.59404267637683
C        13.26422383737989    6.89808059841126    7.21980367858093
C         6.40550038356174    3.57995000686045    8.18239107835158
C         5.08849167516470    3.04675756605491    7.66114866456117
H         5.27888686083211    2.16266506135526    7.05544236948576
H         4.44166913930166    2.79869073196133    8.50378842323575
C         4.46435470460076    4.13259692840737    6.81877086630063
C         4.49428418938867    4.05053736029200    5.43574927153558
H         4.96781405485668    3.19806369507671    4.97122934598091
C         3.91785915254565    5.03178192337679    4.64766428971400
H         3.93931102748177    4.94293451977310    3.57229631491176
C         3.31829870633992    6.12609932254406    5.24690862643423
H         2.87457840435145    6.90284150269822    4.64223618613611
C         3.29729173011085    6.23662003885217    6.62310769791155
H         2.85663157171587    7.10470165605860    7.09143522535939
C         3.85827584769457    5.24275455913933    7.42343133016371
C         3.00914675822791    6.09768868556981    9.56932506050182
C         1.61933298069399    6.12419092695462    9.35645812795889
C         0.77311549595246    6.86889305241231   10.15708151803673
H        -0.28474233115795    6.86282587427017    9.94866618622560
C         1.27584832506263    7.58697104361469   11.22787020256837
H         0.61389545270383    8.16286603023356   11.85350052548722
C         2.63142542843290    7.54602090446432   11.50450226460312
H         3.04143156843843    8.08281732927732   12.34551710554039
C         3.46894788936915    6.81763711674347   10.68426452866093
Cl       11.56551184802643    6.88363879101099    6.89923382024328
Cl       15.87473400338993    5.13947611642526    9.67116111305810
Cl        5.15862266623157    6.78843013650877   11.04958309600617
Cl        0.92206786824183    5.14941520013352    8.10530280116457
N        12.91046676784033    5.36832320716881    9.05245049417142
H        12.01788091423327    5.10983912286212    8.62843874664080
N         3.87092195646714    5.35187437655892    8.81050363711988
H         4.75251554591285    5.07866675452187    9.24796590777988
O         9.32518161796176    3.34418297369627   10.29850538112136
O        10.35784324125945    4.34370611922550    8.67405170590558
O         7.46711819430993    3.35785835549260    7.57032326660338
O         6.41109038214637    4.30863017793313    9.20910887121311
O         8.35947259711431    6.11076262579807    7.48421826898943
H         8.30333902157803    5.65693792214811    6.63592420811226
H         9.23859724820129    6.51080465132185    7.51418978307786
O         8.37217310161453    6.08602271314716   10.43263538048543
H         8.43138992750407    5.62117265621269   11.27472186792137
H         7.48649420290217    6.47165919045237   10.40358591938527
Zn        8.38467470674778    4.51570921178634    8.94730900424133

