21
CSD_code = TACCRC | q = 0 | S = 0 | Stoichiometry = C8H6CrO5S | MND = 6
Cr        2.56315947997227    1.24970704288152    1.66426115894961
S         0.69893660579450    0.79313321587668    3.29568886901426
C         1.31158753728732    1.35192783715070    0.27826319850224
O         0.68257196273976    1.40845976256418   -0.67703185819725
C         2.71061617951718   -0.58247171245790    1.32129606255805
O         2.90372918891026   -1.65914929713275    0.98207428831180
C         3.97248840524735    1.09579661164813    2.88259908751520
O         4.96550719578974    0.98026521640521    3.44991803981162
C         2.51403606147560    3.11038993599224    1.83075887074812
O         2.60162865566721    4.25408935155701    1.76125326727992
C         3.87360800299652    1.52943502098098    0.39855081826252
O         4.69164347455563    1.70248291786718   -0.39264980388282
C         0.75853673676581    1.63349754069603    4.70782081657291
C        -0.31602128761594    1.45141327592757    5.71817096525602
C         1.85272592425567    2.58530699228106    5.02140587028073
H        -0.77810932432861    2.41147178398259    5.95075214533875
H         0.10688379398518    1.06461786797340    6.64635833658040
H        -1.07526178533980    0.76323700370878    5.35864826129482
H         1.79039401194692    3.45367203991479    4.36142350234004
H         1.80219345249312    2.92733809714373    6.05259330572948
H         2.82404572788496    2.12127949503761    4.83754479773430

