43
CSD_code = TACCIJ | q = 0 | S = 0 | Stoichiometry = C14H21O6PW | MND = 8
W         3.94077003693560    2.96889724774910    1.96757279190107
P         2.86091890255750    5.16338457888685    1.79947177872176
O         3.43631648200955    6.57175412817636    2.34288708926240
O         2.52635914827402    5.57806602182780    0.28298567373764
O         1.41913624880784    5.30254086774563    2.54996011738504
O         1.44194581732523    1.87792405284684    0.46521638360496
O         2.54526331092200    2.66823777444352    4.73451008911515
O         4.73411764672917   -0.02158566504537    2.23915687189733
C         3.51134345572880    6.83676460940924    3.73353337528650
C         1.77113345957030    6.74463866818934   -0.02359324635114
C         0.39995024772119    4.32844752253155    2.44351117159460
C         2.34924632342841    2.31442462086355    1.02277726849509
C         3.03954459694247    2.80168766849477    3.70125906048391
C         4.46906970615577    1.08822084429799    2.13976984193874
C         4.92954640736955    3.78884243036265    0.02702161747848
C         5.44868720566209    2.52571073615530    0.18890503161876
C         6.87954494015124    2.29076000253665    0.62621024973976
C         7.09768196028549    2.21679338050920    2.15069727762098
C         6.06435011804102    2.94521582783075    2.97736121240116
C         5.71463240224754    4.26285441805204    2.76536216547742
C         6.38105563964233    5.10427125993072    1.69747723513130
C         5.70376506991654    5.05211104653609    0.31524104768987
H         4.48576324210761    7.28324724916854    3.94036825886134
H         2.72470516831177    7.54160173049027    4.00720202653650
H         3.38433358169365    5.92861067555833    4.32440784774632
H         2.43680260200487    7.60114938341915   -0.13929597960765
H         1.25444654486308    6.55001878828646   -0.96334188805964
H         1.04449276975330    6.96011495008573    0.76134773686868
H        -0.43136908173739    4.68955888493780    3.04959634436358
H         0.07473145399729    4.21036869890269    1.40778279913941
H         0.73829490162138    3.36214977901978    2.82340700423781
H         7.22591209401956    1.35240171331853    0.18717844556740
H         7.49840402806885    3.08597313550989    0.20139777273449
H         7.10674889048701    1.16920126295400    2.45866615502493
H         8.08716530705683    2.62356245503863    2.39646470297363
H         6.39229728624274    6.14536434526505    2.02954035728038
H         7.42527876733722    4.78892760227312    1.61396081010397
H         6.46228087627431    5.18697905086377   -0.46719488294251
H         5.01249024668912    5.89339980652631    0.23410878199410
H         4.13470263442593    3.92315099689570   -0.70460352786608
H         5.01469657921275    1.72367719341414   -0.40616205251616
H         5.95504638518388    2.54670031937073    3.98654697435443
H         5.36599659595641    4.81997993637182    3.63262820896660

