57
CSD_code = TACGUA | q = 0 | S = 0 | Stoichiometry = C28H20N4NiS4 | MND = 4
Ni        5.97537609366293    8.13620924767745    2.20477418656901
S         7.42634483430550    6.96155414273441    1.06050435066372
S         9.60672222051443    8.00169412364882   -0.59487418587754
S         4.67581001340694    6.62760841794599    3.11678523113913
S         2.36102298571031    7.12529829143505    4.84366397580909
N         6.91271529354906    9.65652820828485    1.55174927982326
N         7.96622669173311    9.57489701968044    0.74573287257110
N         4.87301070136875    9.40770326548195    3.08922248079009
N         3.83443838954843    9.07236057879298    3.84711583031330
C         6.41070306685645   10.78233920660651    1.98145889464629
C         6.68450925866084   12.19250726176396    1.82261795623263
C         7.60244725705920   12.94859140276637    1.13044818293099
H         8.35946298448234   12.49149287273421    0.51249396707897
C         7.53288944001982   14.34729682386891    1.24097303766687
H         8.25606788992326   14.93739596969936    0.69688054841893
C         6.58899816233156   14.98846858123212    2.00842915671390
H         6.57555498536068   16.06711104707331    2.06357817884003
C         5.62763616811757   14.24545736174910    2.73092241147019
C         4.59629933044763   14.74139142278473    3.56075135783554
H         4.48680052445300   15.80820969480881    3.68959199724406
C         3.74050532137740   13.87644723450277    4.20147798712354
H         2.96214918111731   14.27975019652046    4.83295581041231
C         3.83101657720902   12.48061420040444    4.07224003403132
H         3.13991124309884   11.84251168725703    4.60054391493616
C         4.81873625375560   11.96175794881247    3.26682582005720
C         5.24694787744680   10.63931939231528    2.87100295274790
C         5.70689005116080   12.85556101515174    2.61131275128366
C         8.28311306555675    8.33433043717679    0.45952302998619
C        10.34833807225679    9.67641811813288   -0.82738783235814
H        10.82933706273987    9.62782315797831   -1.80296658113388
H         9.51504911039640   10.37432605822412   -0.84080903301482
C        11.32857723341837    9.97019016905925    0.25941250769613
C        10.92160495069862   10.59839584671161    1.43055418519046
H         9.88781822662362   10.88596418954226    1.54811423605821
C        11.82943815667643   10.84234229784634    2.44517245058833
H        11.50173044879234   11.33146188421800    3.35073609222907
C        13.15184278232502   10.45786672357225    2.30272483288964
H        13.85939334635808   10.64643196084440    3.09635914030804
C        13.56341110747779    9.82614120296520    1.14117407565774
H        14.59280173228468    9.52048652906091    1.02676685994088
C        12.65666015201384    9.58124799381073    0.12622572713694
H        12.97708350466893    9.08199447066667   -0.77686592181156
C         3.65760698751079    7.77399519841015    3.90911554030074
C         1.39733101756342    8.64176915509860    5.26674396620232
H         0.85532929725254    8.37340177129818    6.17221320993045
H         2.12926256605371    9.41919124053635    5.47022540957808
C         0.47098504301251    9.00016617023847    4.15208793036065
C         0.85668980634253    9.90548524067569    3.17074816978758
H         1.83299984383050   10.36222883746128    3.22192846665959
C         0.00243059885274   10.21193989850808    2.12685554053740
H         0.31334796443013   10.91727754401612    1.37019577471941
C        -1.24397303071803    9.61454200679127    2.04971892240938
H        -1.90941132911761    9.85297936132595    1.23340459596027
C        -1.63270230805910    8.70629651612892    3.02021593356050
H        -2.60239003253748    8.23456415895519    2.96256764765703
C        -0.77953208156881    8.39880691920001    4.06400624439642
H        -1.08046609177082    7.68455832577918    4.81685989708500

