98
CSD_code = TACGOV | q = 0 | S = 0 | Stoichiometry = C52H42P2PtSe | MND = 4
Pt        3.68160408549455    3.91593025712432    3.89823917684829
Se        3.99065299720753    5.85329203168663    2.45354978877651
C         3.52056230880287    6.63841586545084    4.22551232743294
C         2.65291968224938    5.48391755867635    4.77888191355092
H         1.69314430870956    5.53335797728884    4.23168127693751
C         2.37600163699406    5.72692137969395    6.26529263433157
H         2.91012735432818    5.02818689855402    6.91900140880862
H         1.30832237233454    5.62077842868525    6.47148883410334
C         4.70009641804917    6.82922680561799    5.13416833749222
C         6.03855698406332    6.73215628794562    4.80395218024640
H         6.32992590222284    6.49508850801996    3.78982646860786
C         7.00003403769243    6.95583896134479    5.77787957943658
H         8.04727815538328    6.88791843854727    5.51921175825274
C         6.62712792017592    7.27277248689693    7.07238343800607
H         7.38295744960152    7.45488188634630    7.82378690208721
C         5.28455864345247    7.36164435779846    7.41110113815619
H         4.98916107142533    7.60241559017204    8.42289104946209
C         4.32588571591954    7.14486104464074    6.44274972964874
C         2.69058937220183    7.87669793988023    4.31511702186548
C         2.27148380939149    8.68427992496578    3.27886566345389
H         2.58674267462045    8.45981354348076    2.26833496140573
C         1.45610844786287    9.77029917051444    3.55681408245196
H         1.12841265710378   10.41493295203792    2.75409034302040
C         1.05985527169377   10.03158115378089    4.85725881730633
H         0.42359781201102   10.87990008739190    5.06543337869160
C         1.47273720254127    9.21215255763847    5.89833684904090
H         1.15918942834533    9.41756575266539    6.91274394124650
C         2.28888917491781    8.13155539957899    5.62985584770168
C         2.83911261988991    7.16261831519198    6.63846608501368
H         2.54921044250089    7.41243196635577    7.66177926371450
P         4.73371762966744    2.38870069827280    2.45788288595896
C         5.09492977186653    3.00473175969716    0.78326671522995
C         6.15692282336907    3.90122123652590    0.67725507248001
H         6.72066864971455    4.15852528906032    1.56505960459811
C         6.47986303897893    4.45503494060510   -0.54548923039051
H         7.30113066147385    5.15202844826196   -0.62230767660344
C         5.74146043334171    4.12247892984526   -1.67024508917488
H         5.98862605306587    4.55855476301851   -2.62695322557550
C         4.68128933983054    3.23832779046532   -1.56697400041374
H         4.10143515866111    2.98434851692901   -2.44282899535507
C         4.35193802222461    2.67979109878458   -0.34409712957694
H         3.51762312152005    1.99605798925260   -0.26925394659095
C         3.47172020040316    1.12291748842532    2.13504815108538
C         2.17648654683439    1.63743400333851    2.07067669410965
H         2.03638066180536    2.71172735697352    2.20149087372483
C         1.10279475566496    0.80385299347807    1.83090570709991
H         0.10173830411863    1.20673050311837    1.77557579313607
C         1.31641388866532   -0.55541694138002    1.65871570926261
H         0.48114738763783   -1.21291757315315    1.46735826908653
C         2.59829866655280   -1.07210860492888    1.73757023267641
H         2.76034869531617   -2.13285112225613    1.61123622399566
C         3.67838653449245   -0.23941413633566    1.97756579831178
H         4.67354443062526   -0.65267410068012    2.05359826194507
C         6.29289349296801    1.50830573442494    2.78812736652578
C         6.88099828422702    0.67022135702910    1.84596747557823
H         6.40883934931073    0.53008935588652    0.88289018278249
C         8.07483035075583    0.03770552157854    2.13917035498367
H         8.52839014371671   -0.61899384900634    1.41081549411329
C         8.69655871336104    0.25047763163200    3.36032085354531
H         9.62995073738125   -0.24566367553613    3.58243265061061
C         8.13270464670003    1.11179337867651    4.28653212116800
H         8.62661737355648    1.29636467124348    5.22973645569763
C         6.93511251876316    1.74153723903286    3.99832321005347
H         6.49058235145154    2.43284926930144    4.70553852843868
P         3.19934176287020    2.42924774999050    5.58406990230159
C         1.58010340582641    2.68216297187462    6.37999215672782
C         0.51392857150978    2.91942996234842    5.51569409157547
H         0.70467565144655    2.96231193191178    4.44962395616302
C        -0.75892706840561    3.11865056615736    6.01389322233162
H        -1.58223385488476    3.30445440232806    5.33962183501172
C        -0.97379701744545    3.09319309049010    7.38315500585155
H        -1.96586711571428    3.25704494754955    7.77718892084299
C         0.08570235647180    2.87064660187350    8.24637336107314
H        -0.08042144546462    2.86243456165521    9.31384123894785
C         1.36165354332844    2.66324815487689    7.75049822908867
H         2.18517902483164    2.50522283681325    8.43185065354599
C         4.43131794100785    2.56405278449922    6.91204292628426
C         5.32591973966074    3.62634868375528    6.83250041294751
H         5.25059416870099    4.31895243351522    5.99572167312605
C         6.30025024131881    3.79322047148286    7.79942273146021
H         6.98729087677207    4.62277494884266    7.72959057885399
C         6.38552036155670    2.89461005550346    8.85020759376359
H         7.14331713963345    3.02138600445167    9.60931404278490
C         5.50609896859536    1.82501381288424    8.92630743246750
H         5.58266916365910    1.11988924064263    9.74143803035757
C         4.53198979227824    1.65290504862315    7.95985253317044
H         3.86012734069084    0.80622490922313    8.00621558194593
C         3.15610123325125    0.62070219932562    5.32244743787848
C         4.35799390235176   -0.08190593262800    5.27715056778845
H         5.29113060227808    0.44251944966494    5.42666738994242
C         4.36438907292841   -1.44523809910426    5.05587698368097
H         5.30395330028684   -1.97812651161326    5.02952856987515
C         3.17146303799433   -2.12488292062639    4.87165847188185
H         3.17529775174539   -3.19194951968668    4.70606252215990
C         1.97420180600873   -1.43042038594613    4.90002182475971
H         1.04106885207955   -1.95440876781736    4.75346183794886
C         1.96323965216949   -0.06517975132606    5.11956438917816
H         1.02313857238200    0.46666264201160    5.14243828401100

