39
CSD_code = TACLOA | q = 0 | S = 0 | Stoichiometry = C19H12BrN2O4Re | MND = 6
Re        1.95400311015501   12.06591856321883    8.14988045096261
Br       -0.08837341481869   12.90088923004213    6.83555665093744
N         3.02285809351759   12.85034944583326    6.35210032606942
O         0.15697972399702   11.57525722622175   10.61673242954559
C         3.54435552391159   12.78404520293809    4.02416036611636
H         3.73214458208053   12.18019072557672    3.14832149710528
N         2.31410199356476   14.13549226079260    8.57295006053430
O         4.54259778970586   11.21877361938378    9.60028743240514
C         3.27585787066626   12.16135536921658    5.23611041868615
O         1.12677834543552    9.24247157795303    7.18258413610828
C         0.85131116849560   11.71997643104347    9.71601526120108
C         4.12026471096948   10.00664552606511    6.15565367548949
H         4.77694417485026   10.56392858073595    6.80782054176941
C         3.27605686158546   10.68703677876074    5.28044894443063
C         2.01204546966657   14.72465722464206    9.72914682837697
H         1.64045523292302   14.07988175276425   10.51529186811894
C         1.50726347115816   10.26328121237572    7.53643614585187
C         2.77521463713705   14.89730923992937    7.56407552850611
C         3.06528034488493   14.19649436142132    6.30518938747340
C         4.13472661237369    8.62398413356929    6.16662678484530
H         4.79192842613244    8.10249958639937    6.84559840944843
C         2.45947062584591    9.96842156844849    4.41234373473749
H         1.79352524700647   10.49609724062876    3.74507191863083
C         3.57876918206287   11.52766092748612    9.05570493283938
C         2.46626433912578    8.58643263286963    4.44253002607824
H         1.81346371085658    8.03387197972854    3.78394626827809
C         3.30293632227528    7.91342192312882    5.31760453570876
H         3.30452362061766    6.83426096167794    5.33880414526886
O         3.80874533474087   14.85459680353402    2.82781801541101
H         3.92062211589346   14.25451956467439    2.07916830497643
C         3.56583844883623   14.17144875219122    3.95828659752184
C         3.33460503353359   14.88428066995003    5.13166131119549
H         3.33521775292124   15.95865611768733    5.08395083991992
C         2.64409356572557   16.87252445109296    8.92103711900465
H         2.77601391177344   17.93516882701688    9.05311040882072
C         2.15049838494304   16.08095078101549    9.94792921986202
H         1.87907159294152   16.50286484732058   10.90172794962777
C         2.96346525145837   16.27015303090778    7.72042142626060
H         3.35888083104902   16.86133087175674    6.91189610187563

