38
CSD_code = TACLIU | q = 0 | S = 0 | Stoichiometry = C18H11ClN3O4Re | MND = 6
Re        2.64113793603316    7.04453249961011    9.69130948212271
Cl        0.77289753630468    5.88475697977712    8.80118897942424
O         5.21843098852615    8.49918859198598   10.58031155937124
O         0.85595379073249    9.54252472624478   10.00158572443402
N         3.05944884570227    7.36513509187258    7.62753067033407
O         1.72320390380810    6.03612949759865   12.46910986779322
N         3.59285886787487    5.13971721312020    9.00515242624281
C         2.11750019800222    6.43534701326814   11.47205636380602
C         4.25709832260351    7.94690463131303   10.26610929054527
C         3.75966432599807    4.03451791168062    9.73954520953253
C         3.31839670716475    6.25809082502522    6.91090596854382
C         1.55551709855153    8.63839670013822    9.93568570871003
C         3.47484944189701    6.31322946848064    5.52621554485116
H         3.71911188609003    5.42486916175156    4.96741560664387
C         3.96425079616004    4.15418357172986   11.19732634413768
C         3.73855028897469    2.76054949013072    9.19256737717765
H         3.83454741347197    1.89965953377302    9.83140807651354
C         3.43549254730725    3.76597268912976    7.05238345728805
H         3.27571833174293    3.68437013852135    5.98803365873165
C         3.45557242614061    5.00819609097598    7.67445902654367
N         3.33528082395948    3.25054588462049   11.94184610187531
C         3.03972668312125    8.65018537207015    5.61576757153420
H         2.90855519904457    9.61274349445078    5.14894357181708
C         2.92702380595691    8.52419082889129    6.98720371992942
H         2.72084370719982    9.39065001105129    7.60246242428970
C         4.79888016978946    5.12798168949918   11.74488256044014
H         5.35278489712450    5.79698617919466   11.10572815451100
C         4.21503602052030    4.28621022041996   13.89941690350076
H         4.26543682848511    4.31473223283697   14.97629723989599
C         3.32506337818321    7.51784957801926    4.86754080496039
H         3.43066370228797    7.57251456580090    3.79498457436098
C         4.92004827705219    5.19104645328846   13.12320346593563
H         5.55291479664770    5.93746555785093   13.57907921695627
C         3.45073440695437    3.32459199585685   13.25242738519756
H         2.90375630969599    2.57419524584366   13.80755762571459
O         3.49814575398015    1.37773243725596    7.29849728282492
C         3.54802632484857    2.61271482443002    7.82260563936237
H         3.31157726206205    1.40749160249203    6.35105541414762

