56
CSD_code = TACMUG | q = 0 | S = 0 | Stoichiometry = C17H29Cl2NO5PRe | MND = 6
Re        3.29677339033179    4.08883074130429    4.14412338258629
Cl        1.16384133101668    4.38559056548871    4.98119617454939
Cl        4.06908839405077    3.20954610643281    6.16204484414061
P         2.28231553701947    4.53481196348479    1.97932150824299
O         3.77590171798371    5.64146319281638    4.46429617638880
O         2.92714986949330    2.42502302157378    3.57498607973506
O         1.90605038615589    3.23621879469849    1.14063822317355
O         3.09412390660315    5.51816552590552    0.97391294663250
O         0.88217397245963    5.28171015712554    1.84679289465983
N         5.46198182581155    3.76040494341890    3.39481044513319
C         2.30573087955484    1.47300439718880    2.79745816664319
C         2.44186634156884    1.91154456285019    1.29449732867066
C         2.96582692109298    0.10892147821336    3.06198551853385
C         0.82433982226005    1.41924094979352    3.21257453715316
C         3.90196145520909    1.93410198357639    0.84290020580940
C         1.61079542259377    1.05247989174423    0.34280088721191
C         2.26343929865518    6.58344310336878    0.47819408053712
C         1.10391851196826    6.66131356830758    1.51875060733036
C         3.10676025889032    7.84824257696578    0.39317364925408
C         1.76645306036835    6.17040441896845   -0.90508975587713
C         1.50654217131445    7.40069872373140    2.79129380131583
C        -0.20219052584382    7.22332249966519    0.97371992754130
C         6.06142812817442    4.70771519241782    2.68385502493623
C         7.41511456980363    4.67027521992271    2.40012638250700
C         8.16859091616527    3.60682557535587    2.87564906405005
C         7.53316942926178    2.62100813390338    3.61281804817091
C         6.17400349808224    2.73848160472445    3.85311794616525
H         4.03227363454481    0.14931561614923    2.85506957980518
H         2.50852066858339   -0.67412067981285    2.46548265685424
H         2.83500845668200   -0.12893717075536    4.11548094545448
H         0.77417625740814    1.38571818970942    4.29932318991200
H         0.33646360664697    0.53873127948734    2.80539013923149
H         0.30927687873662    2.32082652908879    2.88544800958106
H         0.55328425606388    1.16618388756837    0.55814023209824
H         1.88781317689357    0.00633422344553    0.42480571255032
H         1.78866949717384    1.38409243253466   -0.67751559379607
H         3.97084311658858    2.48127167494902   -0.09525777729054
H         4.27600268909634    0.92551598628635    0.69042496315090
H         4.51509174223015    2.44383341108644    1.58316550781451
H         3.61722101548845    8.03047017788760    1.33317518742849
H         2.47575188065900    8.69949584864025    0.15372801918753
H         3.85371687929934    7.73264490552998   -0.38806442440918
H         2.62401770543497    5.91357582735986   -1.52279946275442
H         1.22053038812524    6.98053076715795   -1.37935216387629
H         1.13066339032583    5.29240470928228   -0.81989899360807
H         0.75966293676444    7.19583733448772    3.55516766526480
H         1.56160256712803    8.47216086690151    2.62235982649657
H         2.46076566904135    7.03189758503251    3.17026564328536
H        -0.60917933364446    6.58146716607699    0.19944848119058
H        -0.04070389705826    8.22043920897794    0.57374326189613
H        -0.92448216250028    7.27922704858098    1.78309625232282
H         5.42724137817307    5.51058524894919    2.33573672029595
H         7.86805990231857    5.46158377785413    1.82462982391286
H         9.22867471078714    3.55124152694671    2.67838204424186
H         8.07766472349855    1.77838960358819    4.00772994109660
H         5.63851777547387    2.01449412405931    4.45184651747160

