45
CSD_code = TACNAN | q = 0 | S = 0 | Stoichiometry = C15H22BMnO4P2 | MND = 6
Mn        6.92243517996381    2.53560841320355    1.94334793026986
P         6.33070121102811    0.92925594250097    3.42256512592598
P        10.55441129863674    2.53298883816113    1.10759036089249
O         7.81712519305880    4.55991315834892    0.03122336193460
O         8.22711516889795    4.11894904611585    4.04380953688907
O         7.14058636063942    0.57512685129351   -0.23343107341925
O         4.17583080676943    3.55803844442069    1.83346315948157
C         7.47061650228601    3.75059057407035    0.79092163753550
C         7.69563642227254    3.48088391486820    3.23902998042908
C         7.02767433843639    1.32007998557817    0.64231928910932
C         5.24880180652298    3.14319879009522    1.88716266800190
C         4.52992646796050    0.63474513615077    3.62518723554037
C         6.76619102550169    1.18540134818296    5.18051629871105
C         6.89869374597242   -0.77373991207365    3.11565715269664
C         7.95558945719213   -1.34379891994521    3.81542920927519
C         8.37724762647682   -2.62615230915161    3.51157742570055
C         7.75793029590228   -3.34514970474350    2.50346535296808
C         6.71513621242489   -2.77559138664994    1.79093512770830
C         6.29089718823109   -1.49541667177576    2.09157734173010
C        10.85040388627841    4.29091549133716    1.50283813394484
C        10.35070896215149    2.47521365586912   -0.70511325919325
C        12.21949370333076    1.79816484853865    1.33391868150347
B         9.30706032420648    1.56075953021056    2.16898308259178
H         9.66448518566217    1.66118821025541    3.29478444352936
H         9.30072764596910    0.45063917967507    1.75274246305759
H         8.45821060439872   -0.78562524376354    4.59053981342015
H         9.19751542754849   -3.06437158013034    4.06193840578212
H         8.09180830830897   -4.34498805327648    2.26768985592925
H         6.23634401114049   -3.32854511709466    0.99591443503103
H         5.48727148485726   -1.04680994330168    1.52256038815604
H         4.36206765663424   -0.21901815031351    4.28423870953653
H         4.08522637315775    1.53291037342626    4.05769304181702
H         4.06516898613107    0.45182845862134    2.65652640679102
H         7.83849148556416    1.34863578219280    5.28144924467317
H         6.45333962093857    0.32633504691864    5.77659257933400
H         6.24622522466454    2.08339683082857    5.52090164593654
H        10.99201958598948    4.38266747865297    2.57922856915340
H         9.98528746505178    4.88315940351407    1.21133679203054
H        11.73537818426543    4.65472341454985    0.98172326736854
H        11.23965975551389    2.86371523705912   -1.20110922174913
H        10.18690560444018    1.43858002791264   -0.99769221968691
H         9.48323997093849    3.06343121099318   -0.99717601298214
H        12.49283545785346    1.86434282238723    2.38543873531167
H        12.17922483079357    0.74824140608338    1.04943205361366
H        12.96245394603345    2.31547814020616    0.72807284371758

