60
CSD_code = TACOMO | q = 0 | S = 0 | Stoichiometry = C24H26MoN2O3S4 | MND = 7
Mo       -0.12230280485629   12.07435347293536    7.83077560276732
O        -0.65607208196685   11.67638659202205    6.33798516191548
S         0.68680377059910   14.32087653402898    6.94206172306756
S        -1.75529888083121   13.88590376672781    8.41428740695981
S         1.21196175287563   12.86385855886588    9.91191194998991
S         2.32686880291276   11.31708360801946    7.70897529638164
O         1.30902869897301    8.91525716526689   10.00297257276856
O        -2.74833001897156   10.97925003742290   11.00060407325460
N         3.33429297209833   11.28135495651151   10.16234138921884
N        -1.01950832813899   16.28553342884760    7.50122136767963
C        -1.36076664613982   10.90234062573164    9.11406450513204
C        -0.28666439879984   10.23575821324841    8.90633745686478
C         0.46575390981211    9.01708082287310    9.12380051209876
C         0.16060111019776    7.93472049570336    8.16337477052107
C         0.49659591805997    6.62370285408042    8.49366721751824
C         0.22176616773950    5.59235624592078    7.61802107026378
C        -0.38093905733871    5.84623244553417    6.39176048489006
C        -0.70157432512622    7.16180091403734    6.06172588751070
C        -0.44135063421849    8.19942580966284    6.93218719391885
C        -0.67930607750715    4.73931518948674    5.42947613793515
C        -2.65011122365287   10.87931835113983    9.79243129202633
C        -3.82244462912949   10.72449450014381    8.89829884908436
C        -3.72870756167477   10.80801807246593    7.50989250510048
C        -4.86069651098843   10.64858798127483    6.73327834856643
C        -6.10135793861029   10.40160153791249    7.31055437790446
C        -6.18848315367875   10.32257461722888    8.69819669517874
C        -5.06695273110017   10.48316284351822    9.48251855831608
C        -7.32565137217954   10.21790322549365    6.46891250616855
C         2.38851017462441   11.75760272378728    9.36922108484165
C         3.32164009227340   11.50504363292792   11.58676595388940
C         4.22620036633906   10.24705924393655    9.69271687308161
C        -0.73124029716745   14.99555130846371    7.59757043143333
C        -0.15995299868215   17.21498250087419    6.81007742729861
C        -2.20223561259299   16.86189677354507    8.09134394619025
H         0.96684286153862    6.43246564581149    9.44709791067497
H         0.48092868579790    4.57828000701365    7.88707141274374
H        -1.15862665334568    7.36968570846748    5.10526886615656
H        -0.67255449253878    9.22097486417779    6.64869797612151
H        -0.17434867490817    4.91816645743563    4.48118936442725
H        -1.74915975351993    4.69124849172566    5.23015988644074
H        -0.35440312042332    3.77943745093218    5.82229826620078
H        -2.77648648950981   11.01406468920476    7.03260905144857
H        -4.77886477419086   10.72020199780138    5.65836597566987
H        -7.14729400962478   10.13451939087703    9.16012415107690
H        -5.12566566737145   10.42435038283424   10.55933948169154
H        -7.11359499389799   10.41428718591048    5.42128931860333
H        -8.11890090139947   10.88678725291723    6.79902895587482
H        -7.69414384111829    9.19655939664651    6.56241360098764
H         4.32636080804063   11.76224019516153   11.92327643974836
H         2.98778364424473   10.59773855648551   12.09559261192429
H         2.64131823807776   12.31859640605838   11.82835154790236
H         4.53813205825511   10.46117732090718    8.67176990051660
H         3.71175007753120    9.28226141328422    9.70971247681377
H         5.09719202482635   10.20897936926379   10.34233986634841
H         0.60444920079234   16.67157237653594    6.25954044172909
H         0.32344068040914   17.88286840857922    7.52633456915270
H        -0.75469856099061   17.80980856510396    6.11572054666363
H        -2.72715298074191   16.11180537687173    8.67795576055908
H        -2.86629843357694   17.23378620882113    7.30825792658952
H        -1.91758138548506   17.69314783153574    8.73846306419288

