33
CSD_code = TACSUM | q = 0 | S = 0 | Stoichiometry = C12H12Cl2HgS6 | MND = 8
Hg        2.65445008968595    3.00700361196133   -1.91035361505902
Cl        3.72750668675052    3.00700030703616   -3.95064301580579
Cl        1.53980033213380    3.00699981109168    0.20935956772775
S         5.49233792279107    3.00700813311696   -0.32470084666986
S         4.07132779792692    5.82724365774735   -1.10491157206143
S         1.18793108029828    5.82741449718354   -2.62143161968395
S        -0.26022163030862    3.00700011202935   -3.35042203234923
C         5.31006424775575    4.33922006480836    0.81036155370961
C         4.73113361138535    5.49078653514266    0.49133333882017
C         2.72139538737213    6.84291896704268   -0.61147698203118
C         1.54630396598211    6.84302498024196   -1.22952576718561
C        -0.50112973713082    5.49081510413688   -2.26060783074128
C        -1.09190925189436    4.33913321495009   -2.55671979615824
H         5.71318886875454    4.15926547057798    1.79490231503305
H         4.63881781718381    6.29680594951907    1.20281782616803
H         2.91825076539431    7.48420000641000    0.23392103520909
H         0.73806815747124    7.48381907945237   -0.91226621043299
H        -1.03492374325952    6.29659947481517   -1.78098381745476
H        -2.13156322774294    4.15902141486718   -2.33078516264262
S         4.07133835402213    0.18675456870438   -1.10490308266408
C         4.73114230414116    0.52321110116044    0.49133499243473
C         5.31006776170513    1.67478299316403    0.81035710573582
H         5.71318720395527    1.85473121726929    1.79489688459193
H         4.63882810339329   -0.28281725416132    1.20281476063593
C         2.72139857576470   -0.82892065806964   -0.61147864099825
C         1.54630251574613   -0.82902739448156   -1.22952471065436
S         1.18792868768851    0.18658017692017   -2.62142997040571
C        -1.09191078472742    1.67486884475508   -2.55671892334666
C        -0.50113163941044    0.52318572490504   -2.26060773428010
H        -1.03492576542434   -0.28259684293334   -1.78098272801015
H        -2.13156523450138    1.85498257973629   -2.33078373740107
H         0.73806144158839   -1.46981832046168   -0.91226315988045
H         2.91824933550948   -1.47019712863838    0.23392157585070

