40
CSD_code = TACTIB | q = 0 | S = 0 | Stoichiometry = C18H15MnO5S | MND = 8
Mn        3.64471218529674   16.26907974197211   20.47229595012216
S         3.62810390653662   13.86126733225515   24.26182478559545
O         6.55008201046369   17.42700476722779   19.48747218803114
C         4.44557134021381   14.66458155665223   21.78009842170330
O         2.99794186371178   12.78804588915711   21.94908224042257
C         4.73406669488233   14.41592331512165   20.42327930426491
O         2.16061835136802   17.22822358944300   22.81341556291212
C         5.44952770327228   15.35532234229224   19.66514789840122
O         1.37467125369112   14.85530799177616   19.25175210512622
C         5.88525052962855   16.57032564331544   20.29201592596099
O         3.32015815089379   18.58820341209417   18.69348910110243
C         5.50958521540225   16.79702165277890   21.62090674110232
C         5.39459111130922   15.58348403598073   22.52101382478833
C         2.40969380573587   12.63034417579077   24.67433736139107
C         2.76869440444515   11.54144542563632   25.45069205564791
C         1.81517045772472   10.59145226636106   25.76109119711498
C         0.50776745008750   10.71358782637401   25.30110250211641
C         0.17220140725563   11.81677956855375   24.52703944647818
C         1.11309591554739   12.78062029941736   24.21526834161218
C        -0.50839942624388    9.66657249402196   25.63947448876200
C         6.82635169591722   18.73105254776745   19.95437154188763
C         3.62777263309362   13.67284439405313   22.47613657538451
C         2.71149443351270   16.87852802474590   21.87191281041255
C         2.25190674339128   15.42590589843619   19.71547924050521
C         3.42425091885313   17.68346443726942   19.39448648051433
H         4.37085355339242   13.49989852514874   19.96141660537012
H         5.79863240646926   15.13623184142949   18.66280290400964
H         5.81745720655033   17.71988567086457   22.10300903636791
H         4.99110155110870   15.86572385722993   23.49476389776389
H         6.37135441397094   15.10087788691683   22.69258220979188
H         3.78432089000580   11.44213772981352   25.80337816183776
H         2.09030106710681    9.73816774165395   26.36432100827302
H        -0.83828052450494   11.92926793532644   24.16211387416678
H         0.84501923912761   13.63640295495992   23.61395167353460
H        -1.48642697923323    9.93087872443658   25.24615502522948
H        -0.58581170942233    9.54703556906765   26.71933670593808
H        -0.21329800489543    8.70566815213614   25.21936253080745
H         7.35128998333273   19.22608710980545   19.13993839044149
H         7.46482544309229   18.71300566556917   20.84296905141175
H         5.90078070790937   19.27214200715214   20.17571283369177

