73
CSD_code = TACWEZ | q = 0 | S = 0 | Stoichiometry = C24H40F3N2OSi2Ta | MND = 10
Ta       12.80412110656718   11.21440323661274   13.79381240828961
F        11.82484359203774   12.83303691441767   13.54979503713965
F        13.02557949216604   11.20635317954871   15.71188244973005
F        11.00278320338008   10.35636239465024   14.16149249804718
N        12.44552094403739   10.30015131131034   11.89984074188058
Si       11.25251729012636   10.45034285944070   10.62384083919915
C        11.86461091717295    9.65466381650278    8.99558317249508
C        11.00942195207278   12.32070667150760   10.35810283335688
C         9.59317077050672    9.67560447382876   11.17044912122516
N        13.53441162127370    9.27466854644215   13.51519585779091
Si       13.84958299335380    7.91409601961728   14.58352034842199
C        14.77361682649693    6.48571947713127   13.71034303241554
C        12.17292307628780    7.32302147195512   15.28892872549630
C        14.92859727668286    8.59715379228192   15.99105939534511
C        12.92237308815142    9.16276392959064   12.35207865467919
C        12.77978038454495    7.88207314146677   11.63420672832834
C        11.66968321854465    7.08003843570924   11.85180722930863
C        11.52118429448730    5.87616516131378   11.18338282490318
C        12.49277897505440    5.45745792485982   10.28014442529948
C        13.61157168961580    6.26546718629409   10.06336035520625
C        13.75285013509091    7.46143209212339   10.73203793105831
O        12.45207775878427    4.29998503251223    9.56892209044315
C        11.35050518016761    3.43997110333324    9.73855353311549
C        15.51793103074945   11.38069497234272   12.31579572998627
C        14.55837419008503   12.39889658125779   12.66275202638657
C        14.78868928694130   12.69530277613199   14.06445898992876
C        15.82549582124652   11.84454070640584   14.51664857920242
C        16.25872993237032   11.04302062844548   13.44343585542787
C        15.68146840566244   10.82468406091035   10.93785236138345
C        14.13870521730575   13.44362385130886   11.65300705923784
C        14.38501108666485   13.96045014232315   14.77818143507980
C        16.35025691841748   11.87678468402041   15.91453812905692
C        17.32531479543454    9.99147582688121   13.47632516905328
H        12.88318837233295    9.93997202047571    8.75257602226607
H        11.82629088913093    8.57129637936162    9.02774455913980
H        11.23055118159774    9.98179844069700    8.17907058729121
H        10.96996614066170   12.84015947290919   11.30962442498632
H        11.79599032320973   12.76757624623402    9.75926776370202
H        10.07279133854892   12.50431630370305    9.84211575070088
H         9.47295525838399    9.78245444166590   12.24458454405330
H         8.75655797652140   10.17723245138931   10.69442958787179
H         9.52597578331893    8.62064463233716   10.92240071121738
H        14.10690003102831    5.85731414025842   13.13044888853844
H        15.54929498744023    6.84262042571483   13.04126095317863
H        15.24710956551959    5.85947726800781   14.45832384161793
H        11.73275972500040    6.51964676515471   14.70561050292713
H        12.28375130499165    6.96401629965336   16.30714984631886
H        11.47234291208061    8.15422945473117   15.30824299096030
H        15.90087858008575    8.92674794162133   15.64568559835638
H        14.43907529053509    9.44158296974834   16.46291242389859
H        15.08648029331451    7.83683353904988   16.74899002983330
H        10.91638796366517    7.40214798558646   12.55240979228262
H        10.64595901508196    5.27601938675924   11.37583570759523
H        14.35684898929859    5.92709351412381    9.36135232390795
H        14.62065421593646    8.07718934202660   10.55789252555930
H        11.53335788069584    2.59509835796992    9.07673168782902
H        11.27572475987227    3.08105610335671   10.76990195425702
H        10.41275907107670    3.92656750663531    9.45230289463943
H        16.17500206944046   11.55071855199372   10.28799719207483
H        16.28504090247517    9.91998273405384   10.95441981426624
H        14.70782216994920   10.59431666304462   10.50360141109663
H        14.96076605918978   14.14210784167819   11.48242616836567
H        13.88948078457944   12.97342490385539   10.70521344498304
H        13.27677850604147   14.01016677151795   11.99503962395906
H        15.21493975312759   14.67041764439463   14.77972863462743
H        13.53134173239534   14.43118687327523   14.29596928791831
H        14.11832061124564   13.74834462744780   15.81336849776675
H        16.82499782262196   12.83818658065506   16.11769470969474
H        15.52944246891359   11.75698195145167   16.62043181581064
H        17.07920432320610   11.09185177735528   16.09350738867365
H        18.04492449594293   10.15323350320333   12.67377710292126
H        17.86708352960726   10.01239663193229   14.41807968244309
H        16.89132045117832    8.99807915167736   13.34974374463031

