108
CSD_code = TACXUR | q = 0 | S = 0 | Stoichiometry = C46H59P2Rh | MND = 7
Rh        7.14364243225444   11.45083401251946    2.96353420510734
P         6.28206445189497   11.89296216267945    4.93532527907250
P         6.17093734823735    9.40642684995234    3.09030503109556
C         6.55392085238505   13.64376324459553    5.32246264782059
C         5.63298736651599   14.62587363117910    4.87724533762145
C         6.04572310263007   15.94715429814781    4.85259853087492
C         7.28628315796125   16.35716257513471    5.32413407585557
C         8.05618768637957   15.41071049158588    5.98022804025071
C         7.70927814138406   14.06656618531093    6.02116811671246
C         4.18184005344931   14.29143979973886    4.51482792130032
C         3.28740741473990   15.54243092963494    4.51585837089160
C         3.59969892610347   13.35094403367962    5.57937796197930
C         4.06199496386694   13.64919926282998    3.12802907801655
C         7.71608691550424   17.80487638471032    5.14853229406354
C         6.73263078621121   18.72570121350921    5.88393225232674
C         9.12168992481992   18.07439668362953    5.69320228329320
C         7.71787103227523   18.13744001333154    3.64912773120427
C         8.53963170194925   13.10893714937692    6.88207664535959
C         9.48960794311079   13.85490303264873    7.83287005994006
C         9.40137170809921   12.16878508002291    6.03175531911872
C         7.59362523923119   12.29256385108925    7.77315056126615
C         7.54089109414721   13.24468019241426    1.56859150190162
C         8.72436905827125   12.95132473656832    2.31956237135538
C         9.18830369615627   11.65389448884811    1.92676184896724
C         8.26052194061114   11.13294498864603    0.97806855277734
C         7.25273393858890   12.12086928518274    0.74102037116537
C         6.95528304782910   14.61738618559895    1.45664520402908
C         9.53423056490324   13.99909425352236    3.01988926225161
C        10.54669967338603   11.09330740220240    2.23234918272473
C         8.47304403656458    9.89289777615310    0.16149028868045
C         6.24098086879410   12.09578836490448   -0.36421858365332
C         4.94733292748947    9.01396535162864    4.38665546362773
C         5.45384557173798    8.96720036642251    5.68540075982098
C         4.61390108246960    8.73905193222413    6.75795574026845
C         3.25675893854348    8.55684765728900    6.54611334996619
C         2.74883505508567    8.59630280686005    5.25901522043784
C         3.58689570384495    8.82944106177419    4.18162725053628
C         5.26795063204388    8.98337473167682    1.56003889380884
C         4.24607713973450    9.86093997241502    1.19895336659853
C         3.52756682074523    9.66403619243135    0.03575252428382
C         3.84104302841857    8.60058917977610   -0.79714339894897
C         4.87667674283507    7.74517700300386   -0.46203742915645
C         5.59033105731517    7.93274086987933    0.71040759688997
C         7.25336243746111    7.95647177198927    3.34778333500799
C         8.61108116217388    8.16698617932933    3.54296755759237
C         9.46005992109410    7.09813066710706    3.76956131837452
C         8.94944703655996    5.81175503431071    3.81198056376357
C         7.58957968786449    5.59768977128039    3.64258674344737
C         6.74032123424661    6.66438622460739    3.41626697503217
H         5.38802297103125   16.69561566177178    4.44623114241662
H         8.96374066633108   15.72852042368602    6.45807458931572
H         3.36737121914497   16.07970851127782    5.45825984010232
H         3.52836194232898   16.21739249072083    3.69767563859069
H         2.25078553361850   15.23662792461441    4.38674384191111
H         2.53307721353849   13.21073843157769    5.41461879253888
H         3.74699017781890   13.76999905520932    6.57258558171280
H         4.07584069408260   12.37071327636495    5.54475469316653
H         4.78955593743031   12.84153793682577    3.00352574046566
H         3.06203099323612   13.23988764154846    2.99355541207944
H         4.23720230808012   14.39156824969863    2.35368971402242
H         5.72632728789222   18.62971484719525    5.48543383571465
H         6.70459120776147   18.47577718065715    6.94266518165739
H         7.04141005666692   19.76428853524049    5.78169277264023
H         9.16378331525120   17.91498081879318    6.76829564243022
H         9.85678678155988   17.43562775338759    5.20836998832149
H         9.39418923337379   19.11006684636030    5.49830260424761
H         6.73010512662987   18.01179860632840    3.21399416354764
H         8.40784534349296   17.48187848390403    3.12146584917709
H         8.03074711061665   19.16780451071510    3.49131992212921
H        10.28392897875569   14.36758777233592    7.29511540469605
H         8.94881249012034   14.57372019063917    8.44436175324257
H         9.96131303786707   13.13353306810365    8.49778066072209
H        10.19660222688972   12.72897227799492    5.54643708310640
H         8.80486047096297   11.67331217171730    5.26122570814291
H         9.85219876999112   11.40439212353058    6.66240160974897
H         8.16608216358077   11.66186820537533    8.45069298722572
H         6.94723769693566   11.65102176479782    7.17463647280016
H         6.96616442252496   12.95813238211743    8.36251248527425
H         6.03616835803422   14.60753566467197    0.87628491167651
H         6.75569318335722   15.04507421362734    2.43817160862224
H         7.66999399170889   15.26897074068364    0.94696701135001
H        10.45875563672054   13.58077570310315    3.40951385682398
H         8.98264647893390   14.45906660803765    3.83779477768523
H         9.79055657410746   14.78494789601941    2.30505342616891
H        11.29991133611779   11.64487062833590    1.66373792669239
H        10.79483040620442   11.18212246795835    3.28972151978501
H        10.61351765382628   10.04617009362601    1.94533840942416
H         8.86631795813783    9.07590763857267    0.76580021041749
H         7.54439944405749    9.55787789960156   -0.29568905064649
H         9.18941057749104   10.09968162778265   -0.63713529894659
H         5.32466619339828   12.60887971297034   -0.07682508934216
H         5.98495864692193   11.07702908891875   -0.64669483588164
H         6.65005219614566   12.59884938846742   -1.24408447531792
H         6.51812364134886    9.09428213368458    5.83669966767178
H         5.01499766347648    8.70655984920324    7.76033848692934
H         2.59630004978869    8.38109638833363    7.38256176894987
H         1.69213986556360    8.44529373220909    5.09016731595050
H         3.17652551078527    8.85444325038818    3.18236577934647
H         4.03637455044689   10.70872426655461    1.84058669479621
H         2.73148573259808   10.34422136415397   -0.23116802274860
H         3.28731994940536    8.44747679423038   -1.71187837678223
H         5.13475635306151    6.92722353011683   -1.11954907521920
H         6.40189951712680    7.26329432363188    0.95727424347837
H         8.98321244985073    9.18545564181609    3.52841475747119
H        10.51714467616610    7.26655598501009    3.91801918694412
H         9.60831181403511    4.97378444493385    3.98718193746034
H         7.19195601419591    4.59413097978350    3.69120506076881
H         5.67710295159732    6.50366546771785    3.29721898068226

