52
CSD_code = TACZIH | q = 0 | S = 0 | Stoichiometry = C21H24CrNO3PSi | MND = 4
Cr        8.54315184101934    5.06390869445814    3.24528274825422
P         9.49396161392971    2.41052672340561    2.55305246860937
Si        6.01491173930257    4.65820255232849    5.36037846671096
O         7.22954963902263    4.73633906596985    4.28114568101606
C         9.77642704878346    2.79163422246516    0.80049281881859
C         7.85510892090617    1.63579159300493    2.69879370856597
C        11.67994747282872    1.51398400775857    3.97078744351491
H        11.62610925806496    2.49905352814818    4.41395830226258
N         9.65290737911475    3.67914308867265    3.48619335755167
O         8.09283902415643    5.01975609047390    1.75292912830340
C        10.55468949291042    3.90798957041303    0.51585960710516
H        10.91925348275909    4.51902409245099    1.33468819373542
O         9.38071255439037    6.30452241983708    3.67511878963610
C         9.27343830578886    2.00058324384118   -0.22523922907949
H         8.66013547106120    1.13935929357335    0.00269815228877
C        12.65426821371547    0.59970345996901    4.33066406060087
H        13.39283302949864    0.86055463129487    5.07404952177231
C        11.73769096610927   -0.99163940357421    2.77768592009724
H        11.76492538933537   -1.96753803936437    2.31554549320932
C         6.78381005624068    2.19106819830181    2.00628206283476
H         6.96097777020279    3.00899811748899    1.31966235819346
C         7.64338055214719    0.61065290766422    3.61355348423884
H         8.48158360404124    0.20060121145375    4.16164276341155
C        10.73243165663205    1.16981609871765    3.01701464207299
C         6.36320171931553    0.12316571101790    3.81378968238935
H         6.19542469057447   -0.67529729109584    4.52196114087953
C         9.54423710824257    2.33736070510983   -1.53982170152073
H         9.14843532611752    1.73160473555827   -2.34201244991639
C         5.29797575208130    0.66254436114118    3.11054068112716
H         4.30023563279455    0.28073172714139    3.27031862981663
C        10.76221668772987   -0.08151744822124    2.41408682278906
H        10.02070175803470   -0.33624871774411    1.66956269528696
C        12.68145622349758   -0.65133596592899    3.73517628925757
H        13.44128242719127   -1.36560866171379    4.01610120330322
C         6.32819704297602    3.06495183684508    6.37565950389236
H         7.32025394748989    3.07488140572322    6.81964658627198
H         6.25774172896815    2.17830060324574    5.75010012534792
H         5.60324379787712    2.96643307051571    7.17697890518427
C        10.31100740191451    3.45503680150351   -1.82700651013554
H        10.51020833279378    3.71886778714616   -2.85524216261840
C        10.81535270541331    4.23971951437692   -0.80122100297151
H        11.40617770086950    5.11398377034410   -1.02934765571556
C         5.50827416834911    1.69628665493393    2.20998409901203
H         4.67535491343455    2.11669469777121    1.66560296907112
C         6.09789348155781    6.23286022803384    6.44029156802586
H         5.95497004242672    7.12613505385352    5.83653564400070
H         7.06860203449714    6.32219794402265    6.92223821517429
H         5.33756523258014    6.22814863071045    7.21499027858932
C         4.37299044810022    4.54255338519138    4.38426917129045
H         4.33156452719225    5.29402055578937    3.59965782816946
H         3.51998316351526    4.69458874305527    5.03770123448117
H         4.26000752255135    3.56950479295082    3.91351826581540

