56
CSD_code = TACZON | q = 0 | S = 0 | Stoichiometry = C18H29Cl5N2PV | MND = 4
V         9.74605746385266   11.53611554896902    0.47145030335495
Cl        6.95622512854323   13.36335565078967   -1.19201743455823
Cl        6.55368642481476   18.23319948145078    1.12647441116840
Cl       10.27917712247807   14.65249793539294    2.71454039610188
Cl        9.81386045509124   11.00103059675501   -1.51671352078853
Cl       11.64564207319531   11.51030815720102    1.28294646079302
P         7.75625672504075    9.69222931784413    2.22758842440534
N         9.10358895429974   13.00509579712180    0.65916590711593
N         8.77000619602947   10.48782049293709    1.32561674439349
C         8.53263459674567   14.18611232866004    0.77040889421357
C         7.44835298867902   14.55635703485428   -0.05806433059181
C         6.83976789767814   15.78822339490681    0.04114926750154
H         6.01830274480771   16.04531019855360   -0.60701578959722
C         7.30750811814502   16.68938517743329    0.99091568147811
C         8.36606956365892   16.37558883792540    1.83539717274234
H         8.71777462305251   17.08494695229767    2.56635043133789
C         8.96325023073452   15.13884994702639    1.72137594566283
C         7.96844766349065   10.35578587893589    4.01422834388922
C         6.85576416499472    9.93389132195259    4.96864565106988
H         7.11481449798976   10.25673709835075    5.97662198708975
H         6.72515862322876    8.85531360013097    4.98416514077712
H         5.90721331498894   10.39634938174260    4.70984273491341
C         9.31528733391702    9.83078009016194    4.51208950838147
H         9.57563300702724   10.33031864599342    5.44473444570038
H        10.09220544357856   10.05827738161983    3.78145504147330
H         9.29041194474986    8.76396602397779    4.71330617384627
C         8.09409779536909   11.87997651959460    3.95666529968727
H         8.58116946404917   12.23388435393200    4.86395763743834
H         7.13671088470711   12.38374201606296    3.88575571571787
H         8.71615015975317   12.16792002603212    3.10412070900048
C         6.00926206665136   10.03829781313350    1.52189049530507
C         5.68734218498082   11.48518298781265    1.89631886027280
H         4.81693299159416   11.82146512377389    1.33456869965782
H         6.52959614168352   12.12681994624766    1.63253021246731
H         5.45317494635780   11.58944690489782    2.95144600241296
C         6.08723272414479    9.98913916411036   -0.00613106274605
H         5.25907917771781   10.55789567067381   -0.42598987390247
H         6.02146325849507    8.98134630484875   -0.40117035556445
H         7.01660279492726   10.45205349400873   -0.34749757154851
C         4.92238702011733    9.10480534711784    2.04511429254069
H         3.95729709878478    9.44408298810625    1.66998575413983
H         4.88052002347403    9.10529109805394    3.13082035651942
H         5.06630241945326    8.08308114717633    1.70386285198103
C         8.24886566186719    7.84303713074489    2.08062783481302
C         7.62159425121174    6.93771339648968    3.13569946994976
H         7.86558225401434    5.90091879620750    2.90447473615632
H         6.53901694875404    7.03320181006448    3.15046313868229
H         8.00303557300793    7.15035667050602    4.13083658661256
C         9.77709258540079    7.75192824243261    2.11342913880958
H        10.09434281534289    6.81869261537573    1.64969885359239
H        10.18050988000330    7.76734095967167    3.11999119470742
H        10.21405705324916    8.57702521435571    1.54495363009044
C         7.81445884527743    7.39114440693833    0.68581810764325
H         8.24791700193578    6.41523867302625    0.46750268689272
H         8.17422898150044    8.09671989535214   -0.06331864117027
H         6.73597969535771    7.29010501026962    0.60881724796656

