27
CSD_code = TACZOO | q = -1 | S = 0 | Stoichiometry = C12H4AuN4S6(1-) | MND = 4
Au        4.88763448702981    8.99482049560017    0.90137556069677
C         4.91293800483133   10.93301439590584   -1.67775673483722
C         4.91165948146542   11.37042158797040   -2.98086425964243
H         4.85440125813932   10.66298581242254   -3.79165566744243
C         4.98657772270002   12.74444151027251   -3.23347490779588
C         5.06407621665519   13.67796969233830   -2.13264928672987
C         5.06188551822786   13.20702106208396   -0.81517076013391
H         5.11816859039958   13.89160177006614    0.01511700129275
C         4.98646362104872   11.85255092929656   -0.59353944298129
C         4.95409913077405    7.05453415412511    3.47734849813718
C         5.02080431863139    6.61475914258128    4.77791479480248
H         5.06586152463660    7.32213469288630    5.58956367790145
C         5.03037023867989    5.23803077710810    5.02705046930991
C         4.97009275657620    4.30423163867886    3.92533520483211
C         4.90086953136776    4.77773331233974    2.61067132944827
H         4.85489598893178    4.09312815379448    1.77976785353237
C         4.89299385824982    6.13486961985019    2.39242605088415
N         4.99935792469731   13.35584882065182   -4.41689908114200
N         5.13144765535150   14.94259517912773   -2.54575759481577
N         4.99098687532282    3.03680694608196    4.33487422598243
N         5.09328525019530    4.62405676484747    6.20756622986407
S         4.98189440561155   11.30957155440042    1.06995862340033
S         4.82029609657624    9.20633008212788   -1.40969967381126
S         4.80164008638035    6.68109097919034    0.73248579533870
S         4.94588585159280    8.78440760439704    3.21356484364293
S         5.09972335280488   14.94977964333450   -4.16268487356291
S         5.07809025312267    3.02756367852009    5.94973212382913

