36
CSD_code = TADHAI | q = 0 | S = 0 | Stoichiometry = C10H15Cl3N5RhS2 | MND = 6
Rh       -0.50276967004634    1.69666552297824    7.25216929586765
Cl        1.39511835144784    0.58766376850305    6.42441171953759
Cl       -0.04099482199696    3.40268818136978    5.81148430734341
Cl       -2.29902319804333    2.83369188167940    8.21866872276623
N        -3.88323610019037    1.38878346990350    4.80559108417576
C        -2.71079346865623    1.64871755830170    5.32908537072533
H        -2.35178632390449    2.66109511413381    5.19152108872519
N        -1.91252381520297    0.81142587966128    6.00107232271234
C        -2.39373997661737   -0.44565684780119    6.09175582669970
C        -3.65995173075035   -0.81176068315866    5.59280975990335
C        -4.42237132774393    0.17340883220932    4.94011286825931
N        -5.64138794791270   -0.05585206803313    4.44458161418060
H        -6.13590303465964    0.69763705536091    4.00067328960293
H        -6.05365880350102   -0.96576373121581    4.54659077592041
N        -3.89480891581263   -2.13647540321728    5.83694289241175
C        -2.82714132075085   -2.55464821897333    6.43901542735165
H        -2.67687031069949   -3.56644161665156    6.76111395722840
N        -1.87227956664839   -1.59388172769568    6.62499679320945
C        -0.55205740376274   -1.84582318678883    7.14680286020261
H         0.16923688927770   -1.22804327041153    6.59455741188080
H        -0.32175940451701   -2.90197035043512    6.98271948003365
C        -0.41956167028305   -1.52543046031408    8.63249115102295
H         0.63064453982229   -1.55243303968962    8.91183300949861
H        -0.99719678159950   -2.21488419581874    9.25043413124853
S        -1.09180449934635    0.14873699428951    8.95989695657806
C        -0.01677168058546    0.73091857842232   10.31839730122100
H        -0.61068784190735    1.49694440828827   10.81890773250272
H         0.13364831880828   -0.10744275830635   10.99890631822214
C         1.29766040105686    1.29203355856111    9.82433075239515
H         1.87839242774476    0.53665086513131    9.29092737905665
H         1.89000855328884    1.69054299532905   10.64897001401064
S         1.09143728689999    2.63648113654946    8.59586094031773
C         0.39156085332696    3.94959192053595    9.62081797541239
H        -0.61489489148998    3.70111316117369    9.94291176588840
H         0.34944702516480    4.82547122447429    8.97968098727944
H         1.06151985978843    4.12604545165624   10.45715671661189

