48
CSD_code = TADLOZ | q = 0 | S = 0 | Stoichiometry = C20H24ClNSZr | MND = 13
Zr        6.52677972951867    2.45517320891773    2.76937252995117
S         7.21437556004393    0.66840573479448    5.14902187589858
Cl        4.52881490166772    2.93359988540748    1.57352199215450
N         5.91531276279287    1.48002798632915    4.46509680990908
C         7.48566055310804    1.42993302877476    6.73876750111844
C         8.52904423124524    0.95627162278315    7.52578340899025
C         8.76156205344043    1.51882597819441    8.76634175084875
C         7.95878983793697    2.55054268740259    9.22865130630781
C         6.92065992127173    3.02063482057776    8.44109718921062
C         6.68205710669947    2.46332276400703    7.19860423212070
C         4.57191060658740    0.91161471223396    4.66654004462159
C         4.46868764179358    0.06081328470053    5.94019497825554
C         3.59021804978060    2.09370683331240    4.77834145220338
C         4.18463253843551    0.03117123907871    3.46120403165673
C         6.27580954944042    4.99264107228062    2.90087447765149
C         7.50032326309361    4.75256775174976    2.24908425494943
C         8.37343954544584    4.13787886619821    3.17542970039632
C         7.67926003149592    3.97763038397376    4.39222629179628
C         6.37307211097556    4.50052816713355    4.21960471010058
C         8.51416896190084    1.08878487920318    2.11989714692990
C         8.38966674235916    2.02308436328723    1.06691361842413
C         7.18961956410100    1.75747663927905    0.38422326246466
C         6.57470864266707    0.64320321867666    0.99407266085578
C         7.39549667566873    0.22255036899997    2.06300025904653
H         9.14591491328044    0.15101912860365    7.15662967504802
H         9.57226019412864    1.15013160347661    9.37724364935038
H         8.14215294725126    2.98636214851274   10.19905904010287
H         6.29329260515507    3.82580530082361    8.79493576768823
H         5.88204487485819    2.82495147781754    6.56797272398708
H         3.43626773353040   -0.24405472362893    6.09059708234932
H         4.79427835224789    0.62282523585006    6.81237829977564
H         5.08561563327502   -0.83101314681827    5.85491959685212
H         2.56625256755977    1.72809186073078    4.75761769762699
H         3.73140447774367    2.78848614313045    3.94615209051022
H         3.74313495470339    2.62595908009104    5.71626506839037
H         4.91075421766257   -0.77418053742121    3.34162660963043
H         4.14482355856846    0.63151101456579    2.54937317478560
H         3.20490447722908   -0.41346597296247    3.62456705318910
H         5.43626425243463    5.54056153269555    2.49156715059422
H         7.76290459177123    5.10207425503748    1.25735526744620
H         9.43146188587198    3.95399095753096    3.03257446541165
H         8.11986677693176    3.66080516449857    5.32882374799983
H         5.63636311344337    4.65197519299921    4.99930859375782
H         9.37863180337630    0.95806760987414    2.76067952447313
H         9.15050506275829    2.72547079329735    0.75057230462788
H         6.84471284446929    2.25119624256330   -0.51578910905365
H         5.69659217283390    0.12983197028206    0.62158036045717
H         7.27862540745254   -0.68659182885409    2.64022467913272

