69
CSD_code = TADMOA | q = 1 | S = 0 | Stoichiometry = C32H29N3OPRuS2(1+) | MND = 6
Ru        3.44610995541993    0.22016340368869    1.38440656102006
N         1.84974263605314    0.33747538456663    1.93975639428279
O         0.71358004478791    0.12855767421262    2.09955407457719
S         4.34074588783611    2.23207196904321    2.22655609353355
S         5.52799002444630   -0.27722942254516    0.42183432183893
C         4.00141985467774    2.52893290757235   -0.51067974187280
C         4.29170096717783    3.14154986203457   -1.72066098298772
C         5.19521004821785    4.18937204602628   -1.77437463501692
C         5.79855140240856    4.64681858883108   -0.61470116968432
C         5.51573793688379    4.04541902326733    0.59575543010244
C         4.62674701510491    2.97782940525812    0.65457961142010
C         3.86046072428575   -2.24689049641219   -0.49451367600568
C         3.60322271040982   -3.48372546554721   -1.06841511165345
C         4.64310169697135   -4.25371210930567   -1.55489967978215
C         5.94646828174578   -3.78434064537492   -1.47449411956693
C         6.21286899480911   -2.56211013632403   -0.89350860881132
C         5.17171356735358   -1.78772983286554   -0.38613457600613
N         3.02133536029805    1.46253508574132   -0.40284361402100
C         2.93130393936374    0.53787502109672   -1.53874878430992
C         2.11437472680018   -0.68793312244912   -1.12883323874944
N         2.77204229001407   -1.42236311656103   -0.02083357307674
P         4.17333544164102   -1.12176935402631    3.15214570829560
C         6.71879417209591    0.03572696968116    3.53025559659158
C         7.94649733190086    0.10987350093032    4.16600182497802
C         8.27875856124444   -0.80434313111415    5.15117478797811
C         7.38095476287065   -1.79943090994018    5.50960147383073
C         6.15320931295534   -1.88204169598822    4.88339152620507
C         5.82348779879234   -0.96566445445134    3.88332607762106
C         2.69085782357024    0.37185453780519    4.91653533940614
C         1.90516261411896    0.59411685067571    6.03181807022413
C         1.50812052427711   -0.47280410684049    6.82291109745575
C         1.90315188832423   -1.76151370682740    6.50231597638566
C         2.69293397293992   -1.99364512360609    5.39034569666234
C         3.08200835658727   -0.92500711280511    4.58798281505778
C         5.12200468384591   -3.62119818361646    2.30035674142674
C         4.94197519349835   -4.91281061739157    1.83700820140049
C         3.66573191799139   -5.43342982049251    1.70024539262268
C         2.55815029401496   -4.66115901708032    2.01955697753100
C         2.72822888198261   -3.36821347274689    2.47696400904867
C         4.01448628423494   -2.84869457945602    2.63432856540353
H         3.81550122336410    2.80533592340398   -2.62868297031300
H         5.41942045209604    4.64902621449795   -2.72348302304719
H         6.49697893314620    5.46741507799717   -0.65335734508734
H         5.98256616766026    4.38193926880711    1.50820553186484
H         2.58465439120786   -3.84038599509459   -1.13226506506938
H         4.43631608795906   -5.21352004401941   -1.99985931369241
H         6.75861849439188   -4.37955813124073   -1.86071969037544
H         7.22201708807950   -2.19028646854399   -0.81184453125131
H         2.10439957140752    1.90725148796560   -0.27247209878351
H         2.45071947532781    1.00142085323224   -2.40809556627900
H         3.94647042932287    0.23836649929805   -1.82121200476950
H         1.99518564283399   -1.34737885292022   -1.99708651904707
H         1.11823272815156   -0.37227869585668   -0.79587507528932
H         2.07529147467912   -2.05158968141742    0.38934329235728
H         6.46166634361961    0.75208307583221    2.76287689087404
H         8.64339623370910    0.88611113359236    3.88985536407499
H         9.23657777715282   -0.74244458011299    5.64442017786039
H         7.63809476726075   -2.51001495634979    6.28032624876186
H         5.44912670774857   -2.65398131822351    5.16238436337549
H         3.01258849973326    1.20272297856620    4.29704844736475
H         1.60183294696433    1.59866496503328    6.28330368143419
H         0.89070142352622   -0.29981777291681    7.69065595087298
H         1.59567157501588   -2.59134925075514    7.12029294441420
H         2.99318947094709   -3.00213517795304    5.14182879793853
H         6.11616018449043   -3.21113288297517    2.40963909817433
H         5.80091702875689   -5.51482750124310    1.58442651541293
H         3.53092542285922   -6.44353273893960    1.34593109851276
H         1.56442385435117   -5.07104545659667    1.91602016406817
H         1.87157772229017   -2.75627056972376    2.74072778228261

