63
CSD_code = TADREY | q = 0 | S = 0 | Stoichiometry = C26H22N4O10Pd | MND = 4
Pd        2.16622477656951    6.37041900871663   -0.05547644473160
O         7.01835458245468   10.04484942541129    8.02965712622316
O        -2.80054359453955    2.46585518189495   -7.98255994271842
O         2.82344578217493    7.16668369490788   -1.86103632671749
O         4.15512619690949    5.43215437331266   -1.55160409295870
O         2.23050010798487    5.35398229971620   -4.76224159470840
O         2.47578708105757    7.55157945397663   -5.00920103391583
H         1.63238243543613    7.48682719192765   -5.48425020123086
O         1.50482912822010    5.56863889580730    1.74698986164119
O         0.16679434623665    7.29761331206969    1.43436185674041
O         2.05815115523245    7.31936423331712    4.68153242643649
O         1.78808653967645    5.12072932519140    4.89065088203823
H         2.62443318694832    5.16979532253463    5.37993500565960
N         6.49555871381296    9.65878207435987    6.95958196476106
N         3.40010628061126    7.39519931906547    1.06204510917950
N         0.93220926529811    5.33949455381611   -1.16485718558914
N        -2.25821679662112    2.89143013516395   -6.93754405853994
C         5.14976706255825    9.68742569382788    6.79043397929335
H         4.59107044603179   10.05162499841688    7.63884723645821
C         4.55500083244955    9.28080399330983    5.62495952379109
H         3.48009055503597    9.28418465506972    5.54252844629326
C         5.33026004579031    8.79987633286161    4.56589197641264
C         6.71205834973730    8.75919970665848    4.76115461553839
H         7.36736425084656    8.41078224068860    3.97812451517094
C         7.25990918619469    9.19494847661615    5.94055977042466
H         8.32239252026889    9.19500245040891    6.12952807253777
C         4.70201045538570    8.34481782634654    3.32830664372122
C         3.60294941963352    9.01602573796445    2.78795885756742
H         3.22869546278996    9.91381338365899    3.25173493380101
C         2.98919575999255    8.51724057163155    1.65713476200071
H         2.12178472442333    9.00540256078854    1.21864451292411
C         4.47317190249855    6.76036615328280    1.54030757451519
H         4.77554251276711    5.86254471711157    1.00279444331903
C         5.15376497648197    7.20697129720602    2.65520244465078
H         5.99923224693022    6.64947433032731    3.02758369921973
C        -0.14710906612432    5.96131384482941   -1.64555263276589
H        -0.44297445798733    6.87274695845344   -1.12790167297302
C        -0.84254377185016    5.48465540072007   -2.73864464658196
H        -1.69389916042434    6.03126851447913   -3.11370450044662
C        -0.39976561184733    4.32887307840362   -3.38654154365333
C         0.70889520737923    3.67441848145757   -2.84524547556726
H         1.07822074727958    2.76511792123797   -3.29012266023373
C         1.33745495450494    4.20349625086500   -1.73667776498638
H         2.21213697715952    3.72840502386465   -1.29806754954744
C        -1.04899186460911    3.83518902673462   -4.59812375590434
C        -2.43446326711799    3.86635001099955   -4.76788734714884
H        -3.07538289878045    4.24002409708016   -3.98458323759901
C        -3.00393594584468    3.38890866147675   -5.92054814843030
H        -4.06991796392932    3.37935185914338   -6.08831515344336
C        -0.90922433086573    2.87252767384605   -6.79417158508569
H        -0.36622499608846    2.48031671418684   -7.64024667701042
C        -0.29308829938531    3.32062246912214   -5.65524025021645
H         0.78330273555832    3.32140686682059   -5.59364108025020
C         3.68317748192449    6.32601201368185   -2.24929534002421
C         4.11533235881947    6.44922014383552   -3.73200605157400
H         4.58922792319135    7.41579223672823   -3.89153476207285
H         4.78950559412064    5.62575187193077   -3.95907072587638
C         2.86178654445350    6.35991384095113   -4.55006022247338
C         0.63427748894376    6.40035124993093    2.13058023500751
C         0.17989027130392    6.25898339299711    3.60499570878465
H        -0.49028698180597    7.08500669287413    3.83482926511170
H        -0.30594353782394    5.29477762458804    3.74174972641621
C         1.42105397246461    6.32289515142130    4.44374848926434

