41
CSD_code = TADSAV | q = 0 | S = 0 | Stoichiometry = C17H17I2N3OPt | MND = 4
C        18.57585754092066    3.41758411861972   11.30996246080129
C        19.99422176226190    5.02601196147447   11.89476105205842
H        20.93994370091198    5.51762269286430   11.98993313493775
C        18.75346747254635    5.40871936591617   12.27686273990638
H        18.41822046333831    6.29631890833516   12.77192088490243
C        20.93914045553788    3.00796517224819   10.75183906023236
H        20.47017370174514    2.12721498578402   10.27800540187294
H        21.58748860584044    2.65681263808052   11.56164877145524
C        21.73016557580972    3.78291050495812    9.73313756074265
C        21.07113597379474    4.43407117093946    8.69383466910758
H        19.99663021985315    4.36710523469263    8.61255622098412
C        21.78699127446422    5.15594587201189    7.76237869453648
H        21.28888646934356    5.66425813352821    6.95094610962414
C        23.17788317534644    5.23599500985014    7.85170009088084
C        23.83616399617285    4.57662770497350    8.88838598437503
H        24.91275606979519    4.63303292083151    8.96084426965678
C        23.11544247886572    3.85974534932320    9.82307803654986
H        23.62892068961869    3.35263570110470   10.62738041266451
C        23.93600768846037    6.00919019191425    6.86018168866826
H        25.03341388287636    5.98011104584231    7.01965294458040
C        16.47441004061721    4.39115849177763   12.12548681190883
H        16.08873717928103    3.42190887292921   11.78867772660119
H        15.99159831692195    5.18443385820798   11.55215435694096
H        16.24681871125319    4.51772923424335   13.18456179274289
C        15.84668723734413   -0.32659549506013   10.08472309361694
H        15.23600574701486    0.40898444121010   10.60019474385699
C        15.30243225845375   -1.51438441401938    9.63477306013962
H        14.25657004361793   -1.72171369535017    9.79512261447382
C        16.12331722218656   -2.42022920568540    8.98056696213071
H        15.73076251821019   -3.35712536968962    8.61671056133572
C        17.45963767719860   -2.09565185776975    8.80403985765652
H        18.13683332649837   -2.76745644826659    8.30142482524825
C        17.92090722454894   -0.88576550341830    9.28683042856315
H        18.96109229526337   -0.59630564615416    9.16903149688769
N        19.86409805614199    3.79829643631378   11.30232964093806
N        17.89543522006439    4.40585997040293   11.91095964590698
N        17.12956968871856   -0.02054423802179    9.91426197124354
O        23.45823524261132    6.63205077117843    5.94767755318335
I        18.52213863406647    0.52674341471766   12.85319635302910
I        17.17837611066245    2.88316045010028    8.36042949675391
Pt       17.85142605176230    1.70396724901864   10.60503681830465

