79
CSD_code = TADTUP | q = 0 | S = 0 | Stoichiometry = C36H27F2N7O4RuS2 | MND = 6
Ru       12.12620818957996    8.52288008016927   11.24110977997854
S        13.42574420877424   12.50215060039761    9.11622293982541
S        12.49448963499074    9.56379122625816   15.64913986971324
F         9.45876281185018   15.90968257496780   10.25561460720941
F        12.45077647821671   13.80721495171819   13.19114155892013
O         9.94818975391721    4.40228895512483    6.05613651604375
O        12.17904037458762    4.13837320232795    5.97668666361484
O        18.79088905864670    6.74015309032865   10.08446892447737
O        17.72341581478126    5.81190539394084    8.34146407555699
N        11.69348111662590    7.39026800568532    9.71632894718490
N        13.95193559704176    7.85117999090833   10.83029524773625
N        11.61790359939782    7.10841986885642   12.61772156299741
N         9.81864100838076    8.49426441074647   12.88331819962980
N         9.44710023709591   10.11162727892049   11.46328339019032
N        12.58114038943894   10.05543120413503   10.06002826013722
N        12.73028417066874    9.54729592749736   12.89727533137644
C        10.46591322564308    7.12373944138147    9.23527715709151
H         9.64592737418428    7.64681494400224    9.71229005253582
C        10.22649480370014    6.25645407554165    8.20114570347495
H         9.22687652294866    6.07165644060349    7.84254270236707
C        11.30736353858854    5.60217019699467    7.58840156941306
C        12.58197672973961    5.86887931536535    8.07290142942723
H        13.43105139843314    5.37910139068836    7.62676774817481
C        12.75060697724463    6.75846970824356    9.12558257966111
C        14.03974610376804    7.06937689145388    9.72745804408124
C        15.26591373941422    6.61382345008112    9.25152992200991
H        15.32624660124382    6.00548589112493    8.36499659388987
C        16.42821831904052    6.96388888491457    9.92557667744944
C        16.32118601568387    7.77524450316396   11.06073502896578
H        17.21201800522330    8.06737912150289   11.59253789595851
C        15.07276022361045    8.19457667177828   11.46588432103107
H        14.94973580498437    8.83506642476283   12.33062908855923
C        11.04948552172487    4.66905289804260    6.47495256858381
C        12.00750298028081    3.23337746194632    4.89662388332768
H        13.00352900066641    2.89870028778935    4.61878650960019
H        11.52193689835469    3.73351668123496    4.05621677427883
H        11.38916709887270    2.38758064827808    5.20463873151660
C        17.77058588377097    6.51241418030343    9.48424591658580
C        18.97459104494521    5.35513369381975    7.84844222634816
H        18.76010523435562    4.80896806116848    6.93361621582964
H        19.45665469298321    4.70521662954693    8.58168782646893
H        19.63315167357626    6.20179387822042    7.64504079844302
C        12.39650276371550    6.10306331990441   13.02107109505310
H        13.21066575282567    5.83134851646045   12.35956598687535
C        12.21159281926532    5.43513529885547   14.21110199471955
H        12.88275902656133    4.63888905680124   14.48991856592102
C        11.17978961612280    5.82688209536770   15.06387229343987
C        10.34523087962715    6.84787656743924   14.63074500854512
H         9.55849067091886    7.19921748468062   15.27355732264344
C        10.57881642509940    7.45974513811111   13.40729519229396
C         8.62771554853219    9.08855899303634   13.28516875701604
C         7.70152121147382    8.83965862370109   14.28575669293990
H         7.80024603944879    8.02464680341813   14.98163220486890
C         6.60281506509395    9.67843912105261   14.37210883874761
H         5.87486004248391    9.50447455011631   15.14912909139342
C         6.41538071122410   10.73648575095860   13.49053148587448
H         5.55124707751646   11.37236308821453   13.60146950922013
C         7.31610591895529   10.98173801241588   12.47054130515662
H         7.17697048902032   11.79933878041910   11.78228226840706
C         8.41174996906980   10.14102485355865   12.37577724221462
C        10.31330650717837    9.13514643615149   11.76594291416639
C        10.99865091755294    5.21233758392428   16.40911947677986
H        11.47648152885476    4.23794121364527   16.46249231161932
H         9.94421548541988    5.11224196284098   16.65549413638507
H        11.45627681466876    5.85914579696994   17.15820016403570
C         9.59750713891343   11.05523602569816   10.38491181339000
H         8.64315546480011   11.15178769353023    9.85887734375667
H        10.34885772767173   10.64846509072605    9.69794748350059
C        10.06483643898029   12.40387022478167   10.87528915254999
C         9.52300488033890   13.56437662144224   10.34201045732531
H         8.75670105385811   13.53016718749353    9.58343208914097
C         9.99412157134882   14.79036605778163   10.77600150385530
C        10.98069994663620   14.90419237436871   11.73614916211549
H        11.34017050417471   15.86607116113307   12.06183299981480
C        11.49771350164517   13.72860471446440   12.25276212059490
C        11.05779271266653   12.48371003545453   11.84232639830919
H        11.51373897223516   11.59505786083497   12.25637805073505
C        12.98107061451947   11.10722284647405    9.70846900186971
C        12.62519033457930    9.55336452379353   14.07239472506741

