51
CSD_code = TADXII | q = 0 | S = 0 | Stoichiometry = C18H26ClIrN2O2S | MND = 8
Ir        5.47427896787968    3.30313043561976    2.46014509404226
Cl        6.62177737653005    2.55130543525423    0.57711701162085
S         6.79058959378061    5.90914620351495    1.28017297728623
O         7.79148021593352    5.26744752023656    2.09219618606907
N         5.39227716594179    5.15222517891748    1.55898862246208
C         4.25922799233236    5.67851754036273    0.86042325091968
H         4.26412579242947    5.40670620005318   -0.20992616031036
H         4.30253647510158    6.77103737246102    0.94197421754936
O         6.59522535511656    7.32709411472060    1.47753356552405
N         3.77718287351214    2.85071428047283    1.41837226005630
C         2.96561136366079    5.15307327764389    1.49915414462499
H         3.06198421367094    5.26646427967347    2.57948859375131
H         2.10993634541051    5.73183569948879    1.15263515521504
C         2.78208732138600    3.70948104260957    1.14898045970117
C         1.62145846904390    3.28251168378697    0.51306316318277
H         0.84050242322821    3.99845019448760    0.30922919251408
C         1.47397306426875    1.95779963933400    0.14382444603349
H         0.57598122067763    1.61826610455896   -0.34840859505512
C         2.51842765789499    1.08600867875034    0.41091168096364
H         2.46768110297530    0.04691538854849    0.12977196193362
C         3.64472061053679    1.57266574825138    1.04187353696483
H         4.49086758160915    0.92772738038002    1.23061307201381
C         7.24938942804995    5.69023647984263   -0.46313084723492
H         8.23749028260934    6.11506629626155   -0.57472196106478
H         6.53250621150779    6.22493784102526   -1.07077868250457
H         7.25586972617994    4.63059750244771   -0.68122570455703
C         4.89817250976848    3.59326928118190    4.59994303459717
C         4.86379917803819    2.18099601213170    4.32104159454581
C         6.17138356499516    1.77991131116823    3.94369282148683
C         7.03965366139147    2.93502116162369    4.06219560247851
C         6.26011037251679    4.02733531483730    4.51025124195021
C         3.79211745327124    4.38984907448520    5.21406832734658
H         3.82094451690780    4.28857200328944    6.30110184360909
H         2.81601395915807    4.04940263354595    4.87237578927619
H         3.90433935429826    5.44466835262280    4.97354003078043
C         3.67425192466088    1.29448678560382    4.52395884035789
H         3.73833849985293    0.39402363633292    3.91713345287164
H         2.74866065719323    1.81034227237959    4.27400011094091
H         3.61925681393997    0.99527144495123    5.57223996624109
C         6.65282577644873    0.38479541352518    3.69144848710838
H         7.29418806936948    0.06094564845197    4.51212539388516
H         7.23164499275578    0.34068067003915    2.77019057099810
H         5.82122570029366   -0.31115948353456    3.61048220026403
C         8.52526076646794    2.91954713607723    3.92710377668570
H         8.83871335999243    3.77164969186843    3.32715674584246
H         8.86110276793052    2.00832747128351    3.44038582903851
H         8.99241414543484    2.99009373279566    4.91062780592353
C         6.75065192668093    5.37745911395322    4.90622027334255
H         6.62212114454321    5.51663589734748    5.98156539213742
H         6.19912757638656    6.15783383237555    4.38461374636255
H         7.79759247643391    5.49028007296162    4.64636048022889

