81
CSD_code = TADXIG | q = 0 | S = 0 | Stoichiometry = C36H34BN7O2Zn | MND = 5
Zn        3.92312704961632    8.44940797771197    5.05475998813149
O         5.68506215701840    7.57510101248922    5.24582714263453
N         3.15962100240148    8.02690913594654    2.37896419981584
N         4.08361605445743    8.68965450287716    3.08259956450084
O         4.72188843569567    9.81460867172476    6.29027382625322
N         1.39348399060872    8.95916501541505    3.83485186787984
C         3.64957777602017    7.70670073141091    1.16867441917127
C         2.99055295751954    5.57944462653824    5.71866539140340
C         7.63730087629719    8.94763488987558    2.61840813042582
H         7.74345076032645    8.05094552327057    2.02624734111389
C         4.94863550051573    8.18074861290880    1.10087703939046
H         5.62335442357116    8.10705401141331    0.27215961227802
N         2.90381241580127    6.72529209806519    5.04847810289797
C         5.18090074157180    8.79475242967008    2.33607033553963
N         2.05210474152094    9.31811126064811    4.94521744889118
C         8.74994349785853    9.55677797198066    3.16716183720794
H         9.73162215609350    9.14047092982465    2.99338263862456
C         2.87937890471298    6.95712814697216    0.14182741364439
H         2.68708401944746    5.94012561728201    0.48103392281455
H         3.44676660144692    6.91505297881771   -0.78392155266604
H         1.92116123581710    7.43628170677720   -0.04859597818752
N         2.04122201897529    6.56305625673339    4.04048791693553
C         6.36708053836509    9.46462497220052    2.85410840875690
N         6.70836545910294   10.29615599483449    7.28143784101054
C         0.46046975343122   10.82208869870956    4.55255179590364
H        -0.18510324074948   11.67076226033035    4.65432125420367
C         2.14151427995456    4.64149185043445    5.11567617955874
H         1.96401381809187    3.62995566158950    5.41978553420475
C         1.55397204794978    5.30794811496119    4.05624293287010
C         0.42099336802696    9.85114320016196    3.56931006840614
C         3.87375642283194    5.43303499134471    6.86684883981768
C         4.16257600281940    6.52660580592000    7.68018666750184
H         3.68460282829928    7.47604073964480    7.48462280461336
C         5.04940661563840    6.40179278231487    8.73176673361294
H         5.27837364984300    7.26121597062562    9.34608907661107
C         1.94218003244013   11.07251662732308    6.64242670578756
C         1.50301506684872   10.43904343747343    5.40518337639087
C         2.23734014993074   10.29316731684417    7.75756607714011
H         2.12504969403212    9.22182201055167    7.69288733334858
C         7.79867394477654    7.97240972909402    6.24990739299618
H         8.22681015467321    7.06856243584930    5.84834212582480
C         4.46737631270848    4.20550162860232    7.15106221310875
H         4.25524287349082    3.35295788229671    6.52285163768571
C         8.01157370563079    9.97646307007673    7.54264154554694
H         8.55360052246081   10.67648697850951    8.15672085628127
C         6.47725291367997    8.27889888902095    5.96635170850520
C         0.55421626808888    4.79556232251782    3.08234293280856
H        -0.35587300909177    5.39154962133335    3.11961075404082
H         0.31022437761380    3.76358419608744    3.31957010156291
H         0.94444057203582    4.84130151269576    2.06735592145655
C        -0.49520131046672    9.75578857529582    2.40254829750017
H         0.06902098546165    9.76872875503633    1.47168701522966
H        -1.18328753710007   10.59684439187351    2.41033830447679
H        -1.06803595297013    8.83087734485458    2.43751252628078
C         5.34605829182573    4.08224107315969    8.21095614558368
H         5.80759239463485    3.12731174343591    8.41819892297654
C         2.04904802594692   12.45702025167577    6.73448216093201
H         1.82295095402757   13.06695084454017    5.87184020063273
C         6.23299707195142   10.61481125258458    3.62830051111666
H         5.24925837703996   11.02717461844474    3.80026159296686
C         2.76224234606120   12.26562308191063    9.01728999889592
H         3.08328502478251   12.73030286828894    9.93860942428899
C         2.64729679207279   10.88702135958915    8.93558229594930
H         2.87498734437602   10.27455002255045    9.79642984941545
B         1.80619804296269    7.71052596820409    3.04326266153872
C         5.64625693943166    5.18062103702181    8.99908316232684
H         6.34298221026653    5.08526637985778    9.81923788515482
C         2.45948740850829   13.04838307246524    7.91537577437719
H         2.54579781990962   14.12392602440257    7.97744749782664
C         7.35056530972007   11.22523178457971    4.16575477115070
H         7.23852485177170   12.12120208558178    4.75993056423062
C         6.16044217174777   11.52060592073154    7.82564761519090
H         5.15860697321818   11.65075177117141    7.42017251082686
H         6.78797856219936   12.36802289740567    7.54865115684615
H         6.10193607557778   11.45943526789679    8.91350735466191
C         8.55966372154738    8.83611871241526    7.04276525523018
H         9.58937740981209    8.60220535623453    7.26142421352654
C         8.61015624978046   10.69451929406418    3.94411568064398
H         9.48127164747396   11.16598144761882    4.37545619439118
C         5.92761478779570    9.50343533462369    6.52199710985210
H         0.99001457036105    7.41910865271820    2.24241391773382

