62
CSD_code = TADXUU | q = 0 | S = 0 | Stoichiometry = C24H30ClIrN2O3S | MND = 8
Ir        5.00097618992247   11.35217228821318   20.16308389391701
O         5.49962213175806   12.14902287501575   24.00087437415835
Cl        6.16542471264286   13.06528685335931   19.12162211088048
S         5.89233512548137   12.74532476084415   22.73692088562883
C         6.63968815887322   17.18275632673959   23.43009226261733
O         6.88211753336365   18.51893310241606   23.52090613006865
C         6.85921567774052   16.61129743355459   22.17214046551943
H         7.20073182140398   17.24947607928380   21.37288338042128
O         7.03819934471795   12.17170119256594   22.07932291867159
C         6.68268834463912    9.78648596332402   20.13726152396196
C         5.78898060441460    9.66692836380433   19.00302645851503
C         4.51128106285559    9.27042722586224   19.50424922330222
C         3.33075156779558    8.84056710259162   18.68874444926333
H         3.31216139611133    9.33830020850714   17.72145164008411
H         2.39484644336851    9.05574771518729   19.20116093091783
H         3.38120885353830    7.76400109945738   18.51649710844066
C         4.59134678077505    9.24070854680905   20.93295157384138
C         3.56072550700146    8.70537336261039   21.87469477861130
H         2.55489968238234    8.79092743658750   21.46645419584770
H         3.60793851654881    9.22826238104147   22.82857511862023
H         3.75316980178765    7.64720662145185   22.06661647485457
C         5.95242267588729    9.49266492287546   21.30736631495640
C         6.48999068445567    9.32249639841432   22.68640321434514
H         6.23485499222786    8.32885736408661   23.05929938138586
H         6.07288513183369   10.06386444597970   23.36721227933143
H         7.56856248733442    9.44433315837194   22.69029417833714
C         6.23425324703889    9.66347120658543   17.57185384551637
H         6.88139246413805    8.80482455923050   17.38770871674495
H         6.79485026040538   10.56874059111018   17.34537932179100
H         5.38462543834861    9.60401400491579   16.89585699913882
C         8.15201871109739   10.03598707072606   20.06764825596540
H         8.42264251483157   10.78222342139155   20.81214950056501
H         8.43535169349552   10.40638861709101   19.08667536075822
H         8.70167990524170    9.11550732314897   20.27249656373627
N         4.67535071366717   12.74674744879118   21.67940131581566
C         6.20764511587380   14.48104500334938   23.02480594802762
C         5.98342556607149   15.03128119415544   24.26780484122562
H         5.64674216319321   14.38774488043664   25.06572067830555
C         6.19845510518426   16.38395954630320   24.48123971253846
H         6.02177768471157   16.79707554281837   25.46184747410698
C         6.69421268167182   19.15758589695281   24.76066948213116
H         5.65339549964990   19.09160763269082   25.09415097173135
H         6.95258086890864   20.20239915209093   24.59484171469760
H         7.35025000432210   18.74115415982036   25.53169800997381
C         6.64235065529079   15.26531146417795   21.96992755077249
H         6.80389506861728   14.80923110508919   21.00620715936791
C         3.38704439057675   13.03985288415705   22.23916704796008
H         3.15186310182163   14.10749241083376   22.10274603569943
H         3.40820352169684   12.81897731058299   23.31406465568229
C         2.28529851414247   12.19822752301587   21.57218866260085
H         2.52249658124628   11.14743815891234   21.73622126916722
H         1.32216201320210   12.42460190598794   22.02941522037613
C         2.24691741963204   12.48282312885208   20.10545370989720
C         1.13058185688361   13.07259868116402   19.52409390969270
H         0.28041836147354   13.31272696528785   20.14345565577045
C         1.11466386761278   13.34744392009443   18.16868969290079
H         0.25332099588229   13.80659140610267   17.70893057802238
C         2.23710473552315   13.02152044386741   17.42271976571938
H         2.28260559872032   13.21719887862443   16.36399608797757
C         3.31750228643149   12.44668174005696   18.06062085701315
H         4.22275298034434   12.21798759612166   17.51665312438376
N         3.32934318418920   12.17921399650263   19.37239503771930

