67
CSD_code = TADYIJ | q = 0 | S = 0 | Stoichiometry = C36H26As2I2Pt | MND = 4
Pt        1.73111221535145    7.35956989321792   12.73311796499018
I         2.83071489464725    7.04751378615034   10.38590104287182
I         0.63694759525550    7.69606375058681   15.07911878239032
As       -0.09089560688437    8.44491497790414   11.61184690599787
As        3.54586042746470    6.26001106435449   13.85282927381662
C        -0.88682087076189    7.11774959253806   10.44834686990797
C        -0.75753834557542    5.78404514414738   10.81990502582673
C        -1.34941950118699    4.78957529828127   10.06353048278406
C        -2.07145363095922    5.12917000719693    8.93096448287582
C        -2.20413669474507    6.45708212703105    8.55843662022910
C        -1.61741872301751    7.45429497661960    9.31760470487860
C        -1.68911417472154    9.18183191162481   12.40121746949308
C        -2.55203030593054    8.56931505410972   13.29063742730584
C        -3.69183418231764    9.23955031479570   13.70586802470071
C        -3.95999660325656   10.51249729973318   13.22930790469226
C        -3.10565068816543   11.12491909297827   12.32901189154177
C        -1.96155488420223   10.46344844419022   11.90029485131386
C        -0.99697985261819   10.96379847769629   10.91837787761105
C        -1.04652217067909   12.20606992692633   10.29839513104856
C        -0.08962846638590   12.55069430825236    9.35921684357360
C         0.92281764540204   11.66566687660530    9.02722819432034
C         0.99397643271544   10.42544592043997    9.64420579268967
C         0.03824673534071   10.07329138937658   10.58079144285198
C         4.35766914535647    7.56815904613559   15.02739121797704
C         4.24222632210841    8.90749381363170   14.67212384875399
C         4.83611119619872    9.88709782273550   15.44629260441335
C         5.54631837841139    9.52705736832867   16.58004272221847
C         5.66765209613154    8.19320281735458   16.93466534427836
C         5.07880690880893    7.21090299756765   16.15796447510855
C         5.13039817147738    5.49447129095200   13.06240849630211
C         5.99887880386292    6.08755516648557   12.16521523528267
C         7.12291155004412    5.39444367262752   11.74447869901180
C         7.37104944710744    4.11885724480144   12.22473455721671
C         6.51184839449078    3.52611330466296   13.13352949898052
C         5.38236567992631    4.20966426385612   13.56631085895439
C         4.41142579030659    3.72762973949777   14.55109810006664
C         4.44347373021204    2.48740807947162   15.17634233523323
C         3.47844442915988    2.15787371896235   16.11257864712655
C         2.47517949960950    3.05625984103128   16.43645664333127
C         2.42355898237296    4.29601173903086   15.81660338189514
C         3.38765172504444    4.63326969684250   14.88304217279553
H        -0.17217633894119    5.53112970948660   11.70963437782181
H        -1.24544713068205    3.75361503294297   10.35141491394472
H        -2.52947245183480    4.35493477373363    8.33348392110666
H        -2.76386849691538    6.71614416344386    7.67146714390815
H        -1.71443206167514    8.49664635977872    9.03127109020680
H        -2.33419314568718    7.57541645510502   13.66353552177056
H        -4.36813634557173    8.76877104271665   14.40340473034867
H        -4.84751267802403   11.03243509910258   13.55912841314000
H        -3.33608437117621   12.11332604158996   11.95915549545241
H        -1.82990101599884   12.90684132038013   10.54718247785525
H        -0.13503536958465   13.51897303553177    8.88240718950064
H         1.66259393832695   11.93995981412407    8.28995757890443
H         1.78851139672748    9.73598726151245    9.38643913708279
H         3.66583493455397    9.17680106365051   13.78183865719019
H         4.74204310333786   10.92762893169612   15.17187632160633
H         6.00388429850817   10.28990565355575   17.19234232681384
H         6.21924316868163    7.91775813100150   17.82181768268408
H         5.16627760122857    6.16410773038721   16.43077938383950
H         5.79700622047355    7.08358594738750   11.78932170820491
H         7.80216681556862    5.84926690408296   11.03929674127830
H         8.24612537753535    3.58092381183307   11.89061520168278
H         6.72666988583204    2.53510307927258   13.50580090089901
H         5.21982125518378    1.77658743771519   14.93406042309515
H         3.51009567097307    1.19087330791481   16.59313542144672
H         1.72772579753601    2.79304088150601   17.17003030721683
H         1.63720844624453    4.99644575181430   16.06966908634261

