103
CSD_code = TADYUS | q = 0 | S = 0 | Stoichiometry = C45H55OPZr | MND = 12
Zr       -0.76250035806236   12.26015647182362    1.93135093521583
P         1.57409245123229   10.39455808484733    3.42734778871062
O        -0.93966490819525   10.66441453212225    2.90816130546687
C        -2.42046696533900   13.47170248944295    0.37961158937625
C        -3.15577218982200   12.54850210026122    1.15462491206079
C        -2.76777206965958   11.25063071454845    0.76515525576513
C        -1.76872701274819   11.37268826323055   -0.22472548157495
C        -1.55648190926157   12.75220452765600   -0.46075496075753
C        -1.58511481367511   14.49001776392815    3.01032295992186
C        -1.64390568310039   13.51186181893078    4.02136282197257
C        -0.32989911951654   13.08516268937825    4.28849869199457
C         0.54158609271880   13.76345600309945    3.40568342639505
C        -0.24485680831499   14.63453526059796    2.60825092860491
C         1.21758185238292   11.81414048117616    1.09719025839109
C         1.62813632004704   12.61811690214439   -0.06546390566848
C         1.49999649437767   12.11136943448987   -1.36447111359700
C         1.85504809642998   12.87140545325128   -2.46182232134977
C         2.34490878022386   14.15658002400516   -2.29329797224710
C         2.49498212857409   14.66655472254415   -1.01398247799088
C         2.14805486296434   13.90850678233002    0.08815171966735
C         2.14593283746098   11.19048481222825    1.85614487813591
C         3.59082662414821   11.45986993098074    1.67175621063730
C         4.23612764681012   11.27309235934237    0.45301274043723
C         5.54785374282523   11.67444927888075    0.28190128295844
C         6.23201646641364   12.29159151462045    1.31463279611436
C         5.59221907011565   12.50083720715645    2.52453309341221
C         4.28775559264194   12.08528005881364    2.70168212704247
C        -0.12865442423961    9.53947588752638    2.87159594558641
C        -0.62196411738838    8.57206472734795    3.96328980035969
C        -0.21518446848148    8.89292503143916    1.48413887891179
C         3.13121296828484    9.41909634158363    3.85462938907033
C         3.95717141899261    8.63805827339769    3.00532775136919
C         5.33090211462028    8.68912902377959    3.17689300210524
C         5.94187679713531    9.40348781841869    4.19443226942898
C         5.10402119489456    9.90529960836280    5.17172714153272
C         3.71873380970292    9.89676833224051    5.05204545608087
C         3.42735928638768    7.59920032337238    2.01457350497954
C         2.95303382032096    8.23937910143104    0.71114440386825
C         2.30086111751393    6.84198186950132    2.72386270694466
C         4.47285210820288    6.53613500747725    1.63797710369876
C         7.45490997845538    9.47362317354536    4.30812157792869
C         7.90525155585930   10.70365600995347    5.10412457991566
C         7.93310630278003    8.20691800421079    5.03340132646787
C         8.10524970416321    9.54114736477641    2.92052012620710
C         2.94572720564018   10.36526303423085    6.29388062515568
C         2.76209751841527   11.88669341063538    6.27428088101117
C         1.58996092337829    9.66442288973162    6.42741859617937
C         3.72162908917987   10.00097837783088    7.57703516148023
H        -2.58435592971081   14.54007044866957    0.33192150587537
H        -3.97785890358842   12.78639654795473    1.82039662052526
H        -3.23603519470932   10.33005932738237    1.09391157972903
H        -1.37203077770748   10.56499636912003   -0.82732585160308
H        -0.95976268745340   13.17457618439074   -1.25905978310579
H        -2.41095963601940   15.11481193899609    2.69682557296052
H        -2.52367430446337   13.23891272299649    4.59250715607718
H        -0.04329605936309   12.42771221772656    5.09751971880657
H         1.62490466580883   13.75299591116161    3.45305161849444
H         0.13261840461405   15.39161168248883    1.92959147671315
H         1.12860549557613   11.10283426752688   -1.50308421015950
H         1.75224073864871   12.45935393792598   -3.45568118132096
H         2.61884288776407   14.75103267149461   -3.15189639027340
H         2.89701347367342   15.66000181559504   -0.87445491644212
H         2.30478157151792   14.30157745473970    1.08489545161645
H         3.70615131161801   10.82602131060170   -0.37342096350065
H         6.03489062690111   11.51684867130925   -0.66992797529996
H         7.25093650369372   12.62238955130089    1.17225175345157
H         6.10744007287084   13.00537629230935    3.32946118529995
H         3.78881758244465   12.26530893776874    3.64223235825201
H        -1.41906004229696    7.94683669319124    3.56388013822012
H         0.15918400622171    7.93063548356317    4.35986901722801
H        -1.03566890087850    9.16136173738940    4.77974937059149
H        -1.27239122904426    8.73896235267420    1.25695950834511
H         0.20482221020178    9.56935576535465    0.73450587011511
H         0.28597250271428    7.93268912116481    1.44912371899322
H         5.95587733588156    8.16027595375544    2.48223605498978
H         5.54347867143927   10.34573059256970    6.04702405592850
H         2.31643226438016    9.09265087001154    0.91131281552903
H         3.81580046782139    8.58107980892801    0.14460504444985
H         2.40946896518014    7.51658101023483    0.10504371387273
H         1.55985087952777    7.53736537118353    3.09091989077285
H         1.82836142814382    6.12597901731557    2.05336096560179
H         2.70658286747408    6.29546658174700    3.57400469459787
H         3.97263301647816    5.74104430617453    1.08722051379101
H         5.25211620451022    6.93456463861654    0.99278877741937
H         4.92937196422652    6.09727722934908    2.52239014301481
H         8.98848351364131   10.79673656149459    5.05910098317586
H         7.46442799517032   11.60546298385887    4.68784204504635
H         7.62709966322389   10.62678186506827    6.15190242137915
H         7.64124954523029    7.31692497734596    4.48026803360858
H         9.01668313840358    8.21412040335900    5.13269107544537
H         7.49351392920870    8.14894135433384    6.02697463749061
H         8.01553244685294    8.59693305465477    2.39025779857204
H         7.63860604412488   10.32084616330237    2.32320595228783
H         9.16620943196845    9.76252964608642    3.01753892564378
H         3.73027414499062   12.38211546273214    6.23159591467589
H         2.17763938014332   12.19238559146374    5.41102852023096
H         2.24822817390792   12.21451659873091    7.17575365494401
H         1.14908878140882    9.89449680874493    7.39561699270688
H         0.89173802580075    9.98661244327534    5.66253558695179
H         1.71973360612269    8.58669595538879    6.35665569871468
H         4.08054098841550    8.97519488758262    7.53417850139081
H         4.56460738840810   10.66283592274703    7.75527210023206
H         3.06033022340347   10.09445123247670    8.43589442048112

