73
CSD_code = TAFDOW | q = 1 | S = 0 | Stoichiometry = C23H36BFN8O2PW(1+) | MND = 7
W         1.47705454492550    1.65700390209907    8.94378020220689
P         3.92213420416462    2.24380443659311    9.18139714020929
F        -0.37025429445173    5.59238961406415   11.21558693576070
O         2.41107340989013    5.40049203091993   10.69239676980852
O         0.94480067534519    3.52666038749192    6.72348853101768
N        -2.32853925184849    2.93456399992894    9.92885537608332
N         2.30610711503032    0.15226789537920    7.64956669867392
N         2.08050234281046   -1.14732968242907    7.87629916027859
N         1.78043171291903    0.23177034489871   10.54743706166195
N         1.58475316979722   -1.07300531946445   10.31669819941352
N        -0.25361406604893    0.45659039608259    8.43716556231234
N        -0.22237607615528   -0.87172240817654    8.60312424803231
N         1.18957719266511    2.75395326965125    7.59774866881969
C         0.06645750482677    5.46477441232439    9.91462428090549
H         0.12501936278206    6.48112839453553    9.51008193520291
C         1.44320668612131    4.76566016609508    9.88663358169046
H         1.77162734692237    4.81330261832952    8.83116428619035
C         1.35840764916778    3.31775816931619   10.38674422723435
C         0.05030948947040    2.66871705910937   10.42133139632159
C        -1.05557538999744    3.29053322902167    9.84045986222507
C        -0.93923188072349    4.61582711911260    9.13652278263680
H        -0.57225733393958    4.50200806506246    8.11173759151534
C        -2.38083632072188    5.14811917036318    9.15287851531722
H        -2.52340634692158    5.78310821775868   10.02790062510357
H        -2.62511958503795    5.71955395142611    8.26165719864879
C        -3.22496292850118    3.87912912125815    9.28458493582084
H        -4.11836452708511    4.02820120286531    9.89153704994223
H        -3.53173673497435    3.49058649852866    8.30618297172015
C         2.75615677756896    6.71674655351969   10.31801791964500
H         2.95296298327786    6.78181342694849    9.24194165431315
H         3.66218622529185    6.95857443800298   10.87009746387204
H         1.97769152607739    7.43478459395406   10.58764971807515
C        -2.85207986337791    1.79051093036628   10.63460089827223
H        -2.10817116741134    0.99010266994540   10.61471282739425
H        -3.74053243330114    1.44235222451729   10.10174240057614
C        -3.20864262902665    2.14186478699132   12.07790959018277
H        -2.33944692768887    2.53116524996549   12.60184252496714
H        -3.56317870934225    1.25587745972439   12.59614443635983
H        -3.99238181520729    2.89369384722458   12.11023374391801
C         2.61591432776055   -1.87882566544350    6.89022015605575
H         2.53868197255596   -2.94659041774524    6.88237677453111
C         3.21576742674003   -1.02139171847269    5.98936796855717
H         3.73336326390936   -1.27625328686030    5.08870959803184
C         2.98589827328011    0.24876671083499    6.50983305226022
H         3.26268995922258    1.20642046565178    6.10728840192019
C         1.87299571551812   -1.78390090234529   11.41644769459744
H         1.77912954280163   -2.84993612138475   11.43175567077626
C         2.27089594544003   -0.90751351018491   12.40437098293234
H         2.57023055496146   -1.13832548667266   13.40485343901052
C         2.19417014880008    0.34767856177934   11.80674676236404
H         2.41074680063604    1.30493072706497   12.24264187134351
C        -1.35529367101488   -1.41353493582528    8.13520684462529
H        -1.52538828333824   -2.46970990819474    8.17338665342535
C        -2.15155095260205   -0.39852392009116    7.64444051330870
H        -3.11842479337995   -0.48550597994239    7.19545799043564
C        -1.40559074801900    0.75939137986467    7.84704266823408
H        -1.63977276460207    1.77123030663619    7.57510777105311
C         5.08575553833600    0.83585171803425    8.96955224779790
H         5.05072132774849    0.44970054918161    7.95328228908206
H         4.81721605481236    0.03638612071480    9.66018663526641
H         6.10044592870283    1.16556724938056    9.19030183913896
C         4.54879878514526    3.44759953771492    7.95420300472988
H         5.63833216579785    3.45935351156758    7.96011272295749
H         4.17804062314579    4.43540790212007    8.22006241488989
H         4.19058032306614    3.20205057022178    6.95721159939754
C         4.61243221101953    2.96774486445532   10.71497393917888
H         5.66826988618758    3.18589863082058   10.55568155243995
H         4.51976864895616    2.26360533761502   11.53910217456637
H         4.08676740389118    3.88816047447123   10.96098850858990
B         1.09093436745087   -1.59276196804047    8.96921702242576
H         0.95209939264710   -2.76257491894945    8.98188242599839
H         1.86944483939364    3.27501842221027   11.35069329394174
H        -0.14982185225721    1.98505325652990   11.24821454381435

