44
CSD_code = TAFFUD | q = 0 | S = 0 | Stoichiometry = C21H12ClN4O5Re | MND = 6
Re       -0.45285086038381   -0.40480314084645    3.98728508530687
Cl        0.93880062268587   -2.17837950950481    4.67232681856667
O        -3.89208082179880   -8.47417539517235    2.34139877722866
N        -2.60153884142879   -6.80632201347857    1.51257942360109
H        -2.02697850629047   -6.49212484255611    0.73403820138039
C        -3.19750905549021   -8.05719283630560    1.44684743008362
O        -1.56499109848646   -7.20565547159639   -0.94388854653506
H        -1.09840282142096   -7.11411929929596   -1.78580564412072
N        -2.80596628699462   -6.05218127952382    2.57442756061919
C        -2.92626445774096   -8.83827790034619    0.20861375856972
N        -0.58874077478314   -1.74662793945413    2.18710140589570
C        -2.16827746603020   -8.43485339067902   -0.90016579137162
C        -2.02299015847823   -9.29451372917025   -1.98333681140902
H        -1.43597170100491   -8.97017612574813   -2.83324706563052
N        -2.00146608993507   -1.87441403003188    4.70418210923998
C        -2.61155890146079  -10.54395384023202   -1.98942713927465
H        -2.48191545737198  -11.19045076983015   -2.84357982603069
C        -3.36252025782863  -10.95545446890189   -0.90038409995312
H        -3.82674301731056  -11.92859873263330   -0.89407971625543
C        -3.51118845249607  -10.10740855873694    0.17566298560232
H        -4.09174847030276  -10.39952121832922    1.03760579374865
C        -2.32102826869500   -4.87827500927110    2.72205723373656
C        -1.45955434593558   -4.01758422728563    1.87769598922196
C        -0.79807498306677   -4.12032916448724    0.66266163250474
H        -0.82782739655389   -5.00371231208378    0.04282100254451
C        -0.05225550261884   -3.01837819127523    0.24642409236936
H         0.48367302012411   -3.05970687661524   -0.68898903944095
C         0.02985052904206   -1.86469131054090    1.01440626411260
H         0.61373601199073   -1.01642659903955    0.68569136319611
C        -1.29030098993809   -2.80174271225029    2.56890460813990
C        -2.61519288398891   -4.10792098836962    3.93664143734551
C        -3.31497465803277   -4.35886832875620    5.10473490904796
H        -3.80907516448438   -5.30198291131596    5.27432651691851
C        -3.33403098857668   -3.33373127312150    6.04697395239284
H        -3.85607513566814   -3.47160090331993    6.98091095571963
C        -2.68061924502507   -2.12575158820485    5.82076845951133
H        -2.69658439078221   -1.33886378724716    6.56211683609133
C        -1.99192188628140   -2.85932199292236    3.81881419798090
O        -2.60338976511990    1.52291525372425    2.88840747344212
C        -1.78745556177789    0.83099248916441    3.30910655596174
O        -0.19730577750726    0.89234559255480    6.77607228887632
C        -0.30822531456447    0.46532453186111    5.72037230939734
O         1.97731079973502    1.09659028000687    2.81895988609605
C         1.04922477208337    0.59012452117005    3.25846636559032

