91
CSD_code = TAFFAI | q = 1 | S = 0 | Stoichiometry = C42H44ClP3Rh(1+) | MND = 8
Rh       -0.25516278251285    5.19803172281604    3.31352252655877
Cl        0.05475453558976    5.60014191951236    5.59505383864423
P        -0.70692184938204    7.45028657159591    3.42538142821500
P        -2.42362472850614    5.41920277897686    4.06059384780134
P        -2.87357497268340    2.81204220027309    4.92096333920332
C         0.18362195357396    4.52157522380566    1.27918776284860
C         1.37185157244366    5.12522667144965    1.84120385144616
C         1.76013526719243    4.36132531929096    2.97688020156831
C         0.81820996164381    3.27558891636087    3.12334441522047
C        -0.10470149164890    3.33533292277339    2.03760378708346
C        -0.38212489760707    4.90207626914442   -0.05259580158467
C         2.13583807970858    6.23379738962965    1.19033214717618
C         3.00267590397835    4.50945373033814    3.79300928586552
C         0.94440781247960    2.14604346328318    4.09128998399925
C        -1.03782395249259    2.22718627955055    1.67935122850058
C         0.29820765419213    8.63266899862792    4.35255849776836
C         1.63196558783284    8.36085523928653    4.62740727002723
C         2.38755605594159    9.28207130895057    5.33015666500783
C         1.81160703203586   10.46879502810810    5.75407824275903
C         0.48004700885517   10.74037570636106    5.47641477887354
C        -0.28192433471517    9.82565234298817    4.77429073702514
C        -1.14907640280556    8.32509622089617    1.89919877147576
C        -0.35348899926455    9.35603941316653    1.40807578061587
C        -0.67624077093502    9.95950097159143    0.20523708233298
C        -1.77856948721595    9.53062396421417   -0.51659906003599
C        -2.55959011706678    8.48825519376269   -0.03994692628674
C        -2.24159179730332    7.87959931197346    1.15919065554782
C        -3.90713001148141    5.24284482065355    3.02571574849814
C        -5.12658734844661    5.73243520044214    3.48206093608234
C        -6.26720730349118    5.54458310789421    2.72505670201007
C        -6.19565112867795    4.87840342965929    1.51120083234772
C        -4.97938359198270    4.40793533427690    1.04614341714665
C        -3.83645187891112    4.58892944172975    1.80434719840105
C        -4.66356883018899    2.49773948063517    4.69968065562019
C        -5.59208007835823    2.76036532953376    5.70284008522524
C        -6.93736182964000    2.54564760859188    5.47251772090839
C        -7.36741116310063    2.06649948172447    4.24457380603707
C        -6.44679246644494    1.78574666312494    3.25025235383610
C        -5.09884790967188    1.99778541330977    3.47865493529043
C        -2.50837290377999    1.92656754491937    6.47800859723484
C        -3.25483968487022    0.83383991502856    6.90433567324125
C        -2.88799641036498    0.15392342742882    8.05217782943731
C        -1.76772649795403    0.54309314559902    8.76721539428959
C        -1.00050907741985    1.60878473929016    8.32450056797560
C        -1.36052978053398    2.29186318027393    7.17859892935954
C        -2.30845958353617    7.26119823464236    4.35000262243739
C        -2.98392030040890    4.57636756941236    5.57962131904239
H        -0.53820093054185    5.97767800736396   -0.12539948145388
H         0.32233001891436    4.61171098456250   -0.83387002660994
H        -1.32866065506546    4.40576916821076   -0.24831008119008
H         2.80657563166650    6.72740485786115    1.88901865874335
H         2.73506269245335    5.81765501989939    0.37848081815116
H         1.46689095101770    6.98093697333699    0.76558710804937
H         2.77080878585815    4.59505540152736    4.85469412380323
H         3.62294457573806    3.62273564098257    3.65867135107545
H         3.57723865124258    5.38052597924573    3.48886668539620
H        -0.03063119033113    1.72347155019831    4.32906959567085
H         1.56053360192012    1.36001827072807    3.65069279685959
H         1.41730624988786    2.47275264429223    5.01414594853870
H        -1.58486658787090    2.43961968311376    0.76502109681982
H        -0.45207854045067    1.32037997559645    1.52458779100151
H        -1.74844309213170    2.02413459816219    2.48261256578572
H         2.05911364455852    7.42071016897663    4.30565017276339
H         3.42309255257860    9.07402621137751    5.55245060494050
H         2.40055563461976   11.18482803220010    6.30624246825455
H         0.03591266948138   11.66585222248275    5.81003824980569
H        -1.32010257630748   10.02938070860663    4.54746339724116
H         0.50625748704267    9.68888326034633    1.97266673520185
H        -0.06460602728597   10.76575267073898   -0.16976080074018
H        -2.02668234938868   10.00482193570445   -1.45343608329345
H        -3.41403126894356    8.14756017934567   -0.60503980745898
H        -2.83834039406479    7.05508211641678    1.52931430476058
H        -5.18193774766666    6.26037861873681    4.42492123299749
H        -7.21524063471587    5.91698762870797    3.08193200267363
H        -7.09064387609300    4.73110552689139    0.92690731277784
H        -4.92442275735592    3.89651987931477    0.09684453901459
H        -2.87626739958289    4.23106578667816    1.46470709183229
H        -5.25944818786202    3.11448316070006    6.66950082158272
H        -7.65425101967739    2.74766773168748    6.25442589917591
H        -8.41976460565890    1.90329987362800    4.06899257465592
H        -6.77773977327991    1.39909094800202    2.29811728139194
H        -4.37595281729439    1.77477341075513    2.70592890274092
H        -4.12470102403810    0.52031599325218    6.34465354284573
H        -3.47940604886137   -0.68497406234084    8.38711213939044
H        -1.48734368406681    0.01090510879744    9.66330478436530
H        -0.11774309447124    1.90513128593645    8.87121010173115
H        -0.75040903694672    3.11273130703340    6.82553340952478
H        -2.16160505945489    7.49221748107559    5.40871614158205
H        -3.13551738785402    7.84360890076319    3.93933094979204
H        -2.28025413463891    4.73908406415435    6.39583705616085
H        -3.99486530711141    4.87246294803854    5.86527636158319

