43
CSD_code = TAFFEN | q = 0 | S = 0 | Stoichiometry = C21H12ClN4O4Re | MND = 6
Re        3.23139339478482    1.22471100667392    9.66141848277341
Cl        2.22762574080181   -0.00843428162002   11.40342801416236
O         8.89294797122197   -1.75705366453294   15.92023500468322
N         7.43694922844734   -0.11438061862777   15.31990739809649
H         7.04748612184450    0.79046162418249   15.58069752831925
C         8.30790692827518   -0.74511278460191   16.20636760298758
N         7.17109542214167   -0.66352204090194   14.15092298479108
C         8.45391084554903   -0.02710727851848   17.49859817544922
N         4.24919131875680    2.12634274564536   11.45295467218374
C         7.41405900693593    0.68406633545570   18.09387226824878
H         6.43414743578847    0.71714032898558   17.63828681110217
N         4.82144250625545   -0.32154178053012   10.02953043924085
C         7.61347493490571    1.31201074891765   19.31019525684373
H         6.80240590646574    1.85485339871046   19.77178780889701
C         8.84617032002071    1.24145568350230   19.93851792427621
H         8.99642990264632    1.73822687073287   20.88508098101351
C         9.87909986331795    0.52212717675785   19.35951261485782
H        10.83571394035582    0.45496301263787   19.85448365289158
C         9.68222337401679   -0.11636543525993   18.15002068746722
H        10.47071666702488   -0.68973733534757   17.68702920604014
C         6.42894558828284   -0.12828790917511   13.25879446852520
C         5.68721078262436    1.15322084187232   13.18481827192904
C         5.48247422259835    2.26178290766884   13.99342730309844
H         5.92154372314918    2.37668405506718   14.97454769345867
C         4.66057890033017    3.27338445692471   13.49882049221180
H         4.47133921051719    4.14797671410600   14.10106811514600
C         4.06904113080410    3.17960355833944   12.24629728766965
H         3.42854069331690    3.96599502514556   11.87245973935757
C         5.02856967068525    1.17380758145623   11.93930358144272
C         5.31533032334769   -0.03711662953257   11.22515159931207
C         5.18483389165817   -1.50263386894234    9.53515655464031
H         4.78947604647417   -1.75961066473190    8.56217629893515
C         6.01968509217333   -2.37998055059483   10.22120011234176
H         6.26323893484342   -3.32587043643223    9.76337519044485
C         6.52843031281299   -2.06631652596968   11.47903195250803
H         7.16647044981877   -2.74349943735782   12.02373167491598
C         6.16332872819540   -0.83699344775851   12.00068251595857
O         5.00631249226507    2.78080462093061    7.66751241353240
C         4.32144865436588    2.20611034694331    8.38927535281134
O         1.81719746359666   -0.54973785513827    7.56906603431510
C         2.34480852542789    0.15249263549730    8.30213039978703
O         0.94797471485101    3.29778864548488    9.77631591642871
C         1.80462961830750    2.54519222395297    9.67810951691372

