45
CSD_code = TAFGEO | q = 0 | S = 0 | Stoichiometry = C22H12BrN4O5Re | MND = 6
Re       16.04972034624402    8.49082757286763    0.55212326180676
Br       13.73134535452441    8.50098212871636   -0.58185668353275
O        10.03857631032727    5.91314363410795    6.85780495832783
N        10.73434278321110    7.92726377863241    6.06459968784897
H        10.61609249849172    8.94603460663574    6.05514702055112
C         9.93360965497472    7.11408916339793    6.87327673701300
O        11.65431495266012   10.22407702122995    5.11681017024093
N        11.62034605616265    7.37759694064095    5.28001376034204
N        15.10948296307646    9.91968696339281    1.86002553170348
C        14.22418020328368    9.37207117700949    2.71431755206172
C        13.36304319551527   10.15182501393760    3.49832304186014
C        13.42227310395368   11.53901989032532    3.37336376266341
H        12.75196588527554   12.14613811480625    3.96266007202975
C        14.33810987156858   12.08868578033472    2.49764791424397
H        14.41870453338591   13.15567257198860    2.36885862651301
C        15.16190772992069   11.24321729753675    1.76832128322245
H        15.88823008004594   11.64854044321263    1.07543257044978
C         8.96054654350736    7.85896138557140    7.70520869411262
C         7.84725143672497    7.14956808677586    8.15759694563111
H         7.75161255114593    6.11158025404218    7.87690507800670
C         6.89147044076765    7.76808244238129    8.93919194343215
H         6.02999834730835    7.21292071356561    9.27791130046687
C         7.04290805458297    9.10038601233089    9.28931156932666
H         6.29833302813410    9.58747546297109    9.90083587265528
C         8.15569485749046    9.80683410844264    8.86152061875360
H         8.27986678791438   10.84087999421046    9.14619403368172
C         9.11306447869169    9.19598127955778    8.07193547603019
H         9.98230956951582    9.76471768248547    7.77567721802964
N        15.05326410318850    7.25646222659742    2.00764664034510
C        12.40057529962790    8.06555515220290    4.49782328841931
C        12.40389154036235    9.53279085349060    4.42588065138626
C        14.19723898664180    7.92998150425239    2.79951274479399
C        13.30992387841256    7.28837519719380    3.67560309055196
C        13.32222353211234    5.89194819989299    3.71434726599916
H        12.63861843606286    5.38052923178032    4.37223010044519
C        14.21057416650237    5.21429401319711    2.90417337175711
H        14.25123980231512    4.13718079456876    2.90310579813545
C        15.05767942793602    5.93176795668295    2.06960573128328
H        15.75887873042910    5.42014001808789    1.42323456727568
O        16.97525956911181   10.59234329157020   -1.52382373549183
C        16.68639710800152    9.79610953568480   -0.75480615618635
O        16.85927556707111    6.13812457193144   -1.28932772148969
C        16.61494677743010    7.02357464694849   -0.60786794547034
O        18.68701133388921    8.51031036988026    2.15611116508375
C        17.71350012249658    8.50085291492771    1.55149312568973

