59
CSD_code = TAFGUE | q = 0 | S = 0 | Stoichiometry = C21H35IrO2 | MND = 6
Ir        2.06876146917189    8.34587792679233    1.55221648741085
O         1.73496141964274    6.77166608133938    0.19020565265146
O         3.59827836491923    8.91409761978574    0.21498867653232
C         2.32335053205224    6.52073925279334   -0.89387355813374
C         3.39018740737879    7.23296966931352   -1.44363662613180
H         3.80147714595351    6.88531133757052   -2.37857550082162
C         3.95826951747299    8.36590103838967   -0.85955127828038
C         1.82572133527852    5.32184255278013   -1.67802838243527
H         0.99693879732922    4.85282447930553   -1.15378435858037
H         2.62906922279652    4.59845163941423   -1.79993442276540
H         1.49505547432676    5.63497934864973   -2.66597799755026
C         5.13018933716732    8.99714658574230   -1.58605003480268
H         5.39031779936150    9.94354779672453   -1.11908579565915
H         4.88259816071774    9.16375199513282   -2.63115468702958
H         5.98974948790756    8.33108710977305   -1.53973100412264
C         0.77752252433252    7.43470329754381    3.01659916864140
H         0.92468777571902    7.84654580790835    4.01577560208546
C         0.00702358889070    8.20233366895455    2.12531925663452
H        -0.36080525281250    9.16362670231043    2.48545260049707
C        -0.93315595431068    7.59045596683699    1.11978444010055
H        -0.56604551729632    6.62181972843693    0.79335091122267
H        -1.01410508230592    8.23173113548667    0.23908731249780
C        -2.33127931635084    7.43589162482839    1.73496442101163
H        -2.78281672729834    8.42487774268242    1.84879856854043
H        -2.95517998879728    6.86741726047774    1.04089931155405
C        -2.34179918869559    6.75022077863127    3.10209546541889
H        -3.38535900616159    6.67181491030951    3.41752604649089
H        -1.83467727150948    7.38726982700165    3.82662397161360
C        -1.70194867510580    5.35473153409327    3.12235434792150
H        -2.36459206357574    4.67226693538265    3.66085212286937
H        -1.61299909557780    4.97276150018703    2.10447860365812
C        -0.33477257527144    5.29322835280107    3.80746403393961
H        -0.08835850120052    4.24055533407170    3.97121888360551
H        -0.40345722446279    5.76867807198266    4.78894890041186
C         0.81827327828597    5.92523934385191    3.01491374831844
H         1.75641461803257    5.60890600361132    3.47768941643220
H         0.80784083613069    5.53970505113422    1.99813669323121
C         2.22874796314900   10.21866346328797    2.58522526953980
H         1.33166493171122   10.43919180976340    3.16533550863469
C         3.13923730741816    9.30995816593491    3.15335546767565
H         2.87694545467369    8.88084425024009    4.12067224246946
C         4.63577340222749    9.36761266006153    2.96080950911763
H         4.89123171860394    9.65775851269250    1.94465224254618
H         5.04382516282312    8.36830656551984    3.13348119657877
C         5.31785721228151   10.33382452033294    3.94011681015473
H         6.38949838708763   10.11683919553617    3.92821442366804
H         4.95718866690012   10.14176414083976    4.95351560433513
C         5.13467212457298   11.81727669669705    3.61148914877720
H         5.85766957117806   12.37344356739835    4.21383865281006
H         5.39327914817037   11.98961600533471    2.56579540924347
C         3.72953360709230   12.36536036396156    3.89757818534878
H         3.81707411783843   13.31246287843981    4.43614713867776
H         3.20080332751765   11.67220871232723    4.55179316249526
C         2.88081447511122   12.62899144711663    2.65272205562580
H         3.34783417668432   13.41747674033251    2.05758772003826
H         1.90676511638913   12.99967757586370    2.98259072402253
C         2.66972946195568   11.39874115043379    1.75894937805045
H         1.90663038359681   11.64084598161846    1.01613712440517
H         3.58638763088186   11.16386058423462    1.22563202880569

