91
CSD_code = TAFHUF | q = 0 | S = 0 | Stoichiometry = C31H55IrO2P2 | MND = 4
Ir        4.52980988887841    3.44485393309911    6.83280523881014
P         3.30609714484893    1.56764615411800    6.99493741597150
P         3.15276517457745    4.02566865471551    5.15545099118892
O         5.77719053441390    2.88782391382757    8.36961808544330
O         5.62841036499893    5.17499590880051    6.66597905260066
C         1.79645799992379    1.66198904125720    5.89218051245930
H         1.51987262613676    0.66294410580712    5.54412419187835
H         0.98440030737157    2.03520334532813    6.51846692449351
C         2.01022628471245    2.61018634566466    4.71418430164106
H         1.05590362630682    2.99584640347859    4.34511988051321
H         2.49346009396893    2.07294135857940    3.89634559764373
C         4.06537108002931   -0.06124449696248    6.47881899562926
H         3.31060111285712   -0.85670402796341    6.47372367963866
C         4.62294341174605    0.12232463043354    5.06888755585606
H         3.80388236020213    0.30297878865064    4.37012655356155
H         5.26461996573283    1.00796329432107    5.07326232434358
C         5.42343228955947   -1.09135095374670    4.60785713086090
H         4.76713617871987   -1.96430043915161    4.55393609764131
H         5.82171644183241   -0.91064303619456    3.60685975599833
C         6.56058092955890   -1.37505364196407    5.58164302813003
H         7.13215215598266   -2.24519510324627    5.25101590733062
H         7.23532480376900   -0.51719304207329    5.60887559692341
C         5.99455830022753   -1.61697502372760    6.97561279872387
H         6.80510041970229   -1.81815088000061    7.67949755287794
H         5.34655075479233   -2.49776697290797    6.95332347997685
C         5.19208432595401   -0.40859057342754    7.44987617426266
H         5.84635596010296    0.46196342433544    7.53852125853588
H         4.78216874946771   -0.62165945719523    8.43895097501812
C         2.56567435419038    1.13672196379363    8.65231947487611
H         3.43357210696088    0.86900001471652    9.26746158815364
C         1.56021599118756   -0.01175165272519    8.68343168547276
H         0.68793189601349    0.24127640644531    8.07756604196491
H         2.00290760772697   -0.92204071115227    8.27571466258794
C         1.11062347716228   -0.27110630928181   10.12121853075920
H         0.38052849531678   -1.08379997723322   10.13872329201609
H         1.97133846514056   -0.58277067090516   10.71774759038968
C         0.50316719783041    0.98701563326058   10.73419416124030
H         0.19897901677365    0.78830104660755   11.76411143457666
H        -0.38964940891886    1.26906038004070   10.17080617370879
C         1.50785135346048    2.13515147157935   10.69724182150379
H         2.37574117988733    1.87674661229938   11.30791942567641
H         1.05846491037794    3.03705144443128   11.11841611798755
C         1.95602679127650    2.39704904650813    9.26304990809695
H         2.70269251390139    3.19444452157959    9.23457623405178
H         1.09523825134952    2.72042391578809    8.67409396114774
C         1.94999924568578    5.43351844543414    5.41569129181515
H         1.24633462642732    5.50249335072935    4.57749193887967
C         1.18276393108703    5.14413202262123    6.70412758004128
H         0.57075815971004    4.24947658126608    6.57461518435396
H         1.91328060494308    4.94211176752911    7.49256315676654
C         0.29216565281742    6.31224890925346    7.11468794553360
H        -0.47022170829867    6.47879933745886    6.34875042816865
H        -0.22007995151741    6.07337418138918    8.04946813011704
C         1.12446150027165    7.57774918019374    7.28100783676622
H         0.48542216370893    8.41390482104053    7.57360789391730
H         1.86272666551719    7.42347244316534    8.07038387943690
C         1.84101314117595    7.89632962035825    5.97447028315658
H         2.44212901774035    8.80120424421963    6.08759161405473
H         1.09895877303356    8.08495892564762    5.19346363963088
C         2.73725034418689    6.73528503073867    5.55280582338327
H         3.21703083071681    6.98504693149027    4.60460365394411
H         3.52306151389396    6.58176471133645    6.29624778230614
C         3.90370997742563    4.46467296254337    3.50506487507719
H         4.40779867192088    5.42118063487071    3.69013210914855
C         2.94235102695916    4.62771347669600    2.33027384368203
H         2.18334298062012    5.37873773815053    2.55569790103523
H         2.43425495963071    3.68203170650526    2.13153000298527
C         3.71426054853478    5.05098584806900    1.08066390308116
H         3.02580511513015    5.15243907604585    0.23831568005378
H         4.17532187944620    6.02623936428138    1.25424012807140
C         4.80068071340152    4.03380557312053    0.74497630838158
H         5.34973718129309    4.35634203702803   -0.14228480028454
H         4.33687610964593    3.07055407373701    0.51892277900456
C         5.75764648544730    3.86997278613991    1.92238835383567
H         6.26320249898463    4.81925780755239    2.11282390442571
H         6.52063413375250    3.12653680308407    1.68179173410071
C         4.98996024120205    3.44450515823927    3.16981937729587
H         5.66500466860342    3.36058622433023    4.02508989820678
H         4.54257310826508    2.46360218664149    2.99628720466717
C         6.75721882718566    3.53699925097792    8.83317150559312
C         7.20574373276399    4.78588880725689    8.39924530584653
H         8.06058253417092    5.21504438566890    8.90073087819767
C         6.62573153018874    5.51830354856371    7.36182285730471
C         7.51800923358707    2.88876204141854    9.97572738705254
H         7.47940005586089    3.52369864333594   10.85883691882000
H         8.56189814444754    2.74993076669181    9.70098536677441
H         7.07607068009307    1.92282476824257   10.20867726170968
C         7.25135531217158    6.86109297411101    7.03038786648206
H         8.28023379811754    6.72255016842822    6.70222495834096
H         7.25742615111656    7.50153563654164    7.91050715475843
H         6.68473770291949    7.34356025826797    6.23707811191991

