90
CSD_code = TAFJOC | q = 0 | S = 0 | Stoichiometry = C44H36BrClIrNO4P2 | MND = 6
C        -1.14936136394189    2.34963720988218   14.94659205038520
H        -0.72410117618138    3.35199174176292   15.04322665950217
C        -2.32230322839039    2.29643853660089   14.26679977393056
C        -3.03898430633953    1.11042879337249   13.89115629284744
H        -3.96788670126961    1.27432358905405   13.36237279187582
C        -2.61534053953735   -0.15156439409048   14.11674134694637
H        -3.23158273508846   -0.96823124695436   13.75704321664776
C        -1.40910367127068   -0.48982590821895   14.79618551668410
C        -1.01321259184425   -1.78518998348687   14.94896273101970
C         0.16987830388586   -2.09345764668776   15.68040420544446
C         1.67152481732773   -3.65835049819580   16.52516076569801
H         2.53742774486695   -3.16440271871988   16.07741482018377
H         1.79167601548639   -4.73829031134234   16.49951036350267
H         1.55871666413735   -3.30811873863497   17.55447410926680
C        -3.17343221616333    0.29729724702127   17.34689333718831
C        -3.48918691810741   -1.02469454443930   17.03814195354924
H        -2.72764365906401   -1.78921440548249   17.10529311339935
C        -4.76806291528363   -1.36532133882916   16.64330124874631
H        -4.99794458715784   -2.39278957686822   16.40362903280939
C        -5.74435456011182   -0.38715805936177   16.53906713096163
H        -6.74117252964490   -0.65165601639511   16.22018133885830
C        -5.43759604101748    0.92883082805266   16.83976902532666
H        -6.19471780660257    1.69411310862815   16.75625810945266
C        -4.15760572121611    1.27308263133821   17.23784471626687
H        -3.92153163469488    2.30229314262820   17.46653792226614
C        -1.56741099708062    2.26241782353582   18.67433449218468
C        -1.73776442953904    3.49228165433679   18.04595238860058
H        -1.76071117509227    3.54203972502304   16.96744966230467
C        -1.85846357464003    4.64695618689942   18.79561736986007
H        -1.98655342789496    5.59552270869614   18.29647150759822
C        -1.80590585248725    4.58441408460356   20.17866564216145
H        -1.89225236629690    5.48698673242852   20.76514907268060
C        -1.63369307349334    3.36329351174814   20.80803921281878
H        -1.58711067780802    3.31120834843158   21.88602416315706
C        -1.51455049457397    2.20349840348579   20.06275782259996
H        -1.37465215967881    1.25636027898882   20.56413430457909
C        -0.82375501849642   -0.47757921373519   18.85055538168345
C        -1.66397103011095   -1.31549995580924   19.57862209075837
H        -2.73635555951553   -1.24317067937216   19.46513240018667
C        -1.12547536659112   -2.23677308621159   20.45994208415017
H        -1.78211738240376   -2.88760477032794   21.01858907207961
C         0.24687520593815   -2.32470587452947   20.62799580766485
H         0.66117901762153   -3.05209083177241   21.31071876539574
C         1.08459943987081   -1.46992056670394   19.92927563971438
H         2.15413523308666   -1.52222896052799   20.07366068104427
C         0.55343997609516   -0.54706044476153   19.04721428438182
H         1.20103556762673    0.13197537950185   18.51187633768735
C         1.06672757823720   -0.57542938303015   12.84056352590049
C        -0.07746488686468   -0.49193706138718   12.04784945628642
H        -0.66357601578285    0.41754556456057   12.06086865280215
C        -0.46745058252908   -1.56717982913037   11.27408741725500
H        -1.35569749940807   -1.49733528077969   10.66448785970048
C         0.26645299694677   -2.74392108305711   11.30105628066086
H        -0.05238528755727   -3.59156839227868   10.71408548961253
C         1.39544671620010   -2.83743974949775   12.09626174521544
H         1.96018232791412   -3.75766275550306   12.12776666710783
C         1.79553531414651   -1.75856663453527   12.86676551937390
H         2.67502887607468   -1.83419433229113   13.49252197330638
C         3.16892870541054    0.51336035273758   14.40856541147878
C         3.57572505490155    0.13875672376401   15.68161693824783
H         2.84604309183264    0.03170427436815   16.46729123932209
C         4.91746549699001   -0.08669864330136   15.93908163867421
H         5.23165424453389   -0.37394085004302   16.93188398692758
C         5.85480404682094    0.06048849257844   14.93147936157349
H         6.90120756657259   -0.11301233712859   15.13535756212656
C         5.45109823707683    0.43461712682910   13.65870763098442
H         6.18110004129638    0.55122829362034   12.87112737969630
C         4.11432466282793    0.66207326841988   13.39491481964736
H         3.79782140282503    0.95532306156583   12.40300514234266
C         1.53731300261959    2.28158744318719   12.96391630774514
C         1.71881417171962    3.48168761366961   13.64796724535556
H         1.76643197072263    3.47201594064510   14.72823054152073
C         1.84070639784540    4.66703812643794   12.94870539704739
H         1.97446335384158    5.59527348647458   13.48316540926944
C         1.78613794455608    4.66293826308999   11.56382664671085
H         1.87419656881149    5.58910357846977   11.01585890491746
C         1.62142830717606    3.46971524809072   10.88103642893011
H         1.58735132477737    3.46385658058820    9.80132743646795
C         1.49929761290693    2.27792614719778   11.57481167659235
H         1.37675868412919    1.35088313412243   11.03254093141121
N        -2.91288459711631    3.53978175309630   13.83454879449170
O         0.85342987648051   -1.20957815332333   16.21855040974357
O         0.50226413596806   -3.37696071642315   15.77849646963946
O        -2.44614958811056    4.57599999682003   14.27180731916876
O        -3.85411653872635    3.49510734865222   13.06470972931042
P        -1.43959005481548    0.75609226998857   17.66157670127948
P         1.41654217332011    0.78502142853927   13.99247141171214
Cl        1.30786726868541    2.22351725592873   16.99741506620199
Br       -1.94936480038577   -3.30533033375051   14.25292986910836
Ir       -0.15738979964625    0.81342086763439   15.71402184912782

