90
CSD_code = TAFJES | q = 0 | S = 0 | Stoichiometry = C44H36Cl2IrNO4P2 | MND = 6
Ir       10.51036817076881    4.35038435292437    9.24933175002302
Cl        9.55231842018132    3.39826370603643    7.26061503399381
P         8.40050751877603    4.05708439008326   10.19113437333344
P        12.41464879939467    4.79617662937254    7.98231665725363
Cl       11.58349750207315    7.71311269039484   12.14157630487423
C        11.19964713421215    5.26877744626317   10.91718796555146
O        12.70648106986945    0.76460621219537   12.43987158259188
C         7.27148794412913    0.28872429373195    9.13600143067873
H         7.75382486480462   -0.67194119789523    9.03695694120646
C         5.91911894299822    0.42326458186046    8.86566042173959
H         5.34174619254216   -0.43393784839443    8.55252401037272
O        10.07376364259708    6.57421812486749    8.76630207134048
C         8.38164893993072    3.92347888829284   12.00672264575317
N        12.07589772056204    0.97702158593688   11.42062752947749
O        11.74679389858055    0.10434420462921   10.63763551172298
C        11.00222546347972    5.98533074760201    5.86632611680828
H        10.17417028960703    6.05475092863633    6.55282921767034
C        11.07465360265176    6.62845635832531   10.87141429836890
C        12.19335539841907    5.40107244924989    6.27858553623896
C         7.32584957742448    5.46892761532823    9.78490542610584
C         7.28418452289286    5.84882281304505    8.44409041506759
H         7.85465217939606    5.28855655322754    7.71659515002030
C         8.28721298626003    2.60009875923104   14.01263418748112
H         8.13357454176643    1.64484037277741   14.49206103582098
C         7.40308891988799    2.63366488177590    9.65243598150869
C        13.42204077424130    6.10354166126980    8.74073921670109
C        10.87943134622328    6.46786743149068    4.57505357144315
H         9.94931368940528    6.91491115197541    4.25559455926587
C        11.92909709814912    3.28608727298585   12.17466358093582
H        12.33288680062595    2.87528741922198   13.09004074767372
C         8.59292403086818    3.71613541269419   14.77208397205541
H         8.67663609581517    3.63484271083750   15.84540410958892
C         6.56281943149070    6.16131062855106   10.71864019051709
H         6.55802141615190    5.85472963004880   11.75463586229665
C         8.70106550610099    5.04061013999918   12.77678046961157
H         8.88110500916795    5.99107246757915   12.29557103124272
C         5.77695397685972    7.63260036439025    8.98882065862377
H         5.18165658221669    8.48109435734763    8.68420765707463
C        13.26178784523732    5.30996519449748    5.38906027948135
H        14.19084178224386    4.85690191757470    5.70670065293596
C         6.04483445804652    2.76437438361876    9.38448537464872
H         5.56109221410747    3.72662657279572    9.47592783835941
C        15.09591416628711    1.14447378453642    7.24112903225682
H        15.70187056330026    0.26854949516029    7.06408377223847
C         5.30933192633466    1.65980265388187    8.99198052733153
H         4.25559970459433    1.76859532047369    8.78022824969039
C        11.68822784191969    2.33457129071528   11.12535426158344
C        14.73114176692452    8.12571228698052   10.12171966428835
H        15.23213133332632    8.91463737515118   10.66236370018781
C        11.17209881242790    2.59674396005249    9.89899597909407
H        11.15711616619702    1.73928452517883    9.22120803121488
C        12.97150098278788    2.25038741771202    7.16051335146091
H        11.91936622392953    2.25509180555161    6.91068021908862
C        13.54205838245533    3.39182468286254    7.72103139432377
C         8.79708160188057    4.93798915023762   14.15078718422439
H         9.04136203952957    5.81173615534442   14.73651335933496
C        13.74664247826967    1.13180422393624    6.92364595550752
H        13.29882650359638    0.24785308412701    6.49566262735525
C        11.72126512810795    4.61607033045511   12.07532046903515
H        11.96654733655866    5.23985093161393   12.92629873038368
C        11.94117351078266    6.37297820449527    3.69161733826935
H        11.84184004664112    6.74604493677053    2.68282593348004
C        14.03599157334259    5.83744172586280    9.96384319041682
H        13.97322839013216    4.84092812300915   10.38032172127429
C        14.69673822666330    6.84128702224150   10.64365383218536
H        15.17062322594514    6.62794122593407   11.59006774714628
C        13.45662849050724    7.39303880461571    8.22449331869390
H        12.97060273253459    7.60875676512198    7.28237557340878
C        14.89834229212256    3.40805852564329    8.02200275984194
H        15.35650819820123    4.29496048186890    8.43600904200137
C         6.51432024000711    6.92665935609947    8.05041772068999
H         6.48809695280700    7.21850821418892    7.01037674740223
C        14.11092304923144    8.39920349519711    8.91512949025803
H        14.12857574381320    9.40164474793487    8.51266256388789
C         5.79506486529651    7.24167984862050   10.31719972506335
H         5.20757985459025    7.77892158045745   11.04743050055627
C         8.18309593347446    2.69983500896931   12.63605721848594
H         7.94626547646761    1.82436381297547   12.04917053144985
C        13.13265034769340    5.79594830428780    4.10161549830800
H        13.96302523310474    5.72144255289498    3.41471461110381
C         8.01162437154582    1.38821936811554    9.52715255179250
H         9.06816043123814    1.28975367099350    9.72736365567576
O        10.40518056734303    8.57222483704545    9.71972747711564
C        10.49460873013125    7.24441390652226    9.72094420087139
C        15.66881466100694    2.28268272733638    7.78255584132625
H        16.72232260004300    2.29756412947539    8.02113620901458
C         9.80917345716678    9.14617372515033    8.56910504797569
H         9.79814471188405   10.21952371887371    8.73986579703402
H         8.79248041993626    8.76686663399160    8.43802639463094
H        10.39410640775112    8.90579781487877    7.67806988453162

