53
CSD_code = TAFPIA | q = 1 | S = 0 | Stoichiometry = C22H27OPdS2(1+) | MND = 5
Pd        0.54666830985259    0.99979936863548    4.39059244813031
S         0.36369703769366    3.42567689429605    4.92448113757858
C         1.44614557047516   -0.79589204571081    3.70601699175124
C         2.29878059373765    0.28899182848361    3.43245983153892
C         2.72525487446749    1.12131107905427    4.48405381543292
C         2.86477864178939    0.61966482554708    5.90554667173496
C         3.47430410253038    2.37875811559048    4.17179660264770
C        -1.35123542111701    3.87057339958450    5.33330361618938
C         0.43684342697455    3.80752099745219    3.16614844590730
C         1.32621505226288    4.74923491894224    2.67681161073227
C         1.41281600410438    4.94420216166949    1.30887195223992
C         0.62290211172608    4.21581521380526    0.43303668757447
C        -0.29681832894654    3.28473615793285    0.89857068941189
C        -0.37723043570395    3.10431452370904    2.27719346658354
O        -1.24590096598401    2.20165492856121    2.83481613738475
C        -1.26007831527224    2.49817786490136    0.02057496448010
C        -2.59622601792897    3.26898538632197    0.00006019415764
C        -0.74425029722475    2.34788550637170   -1.40981903462125
S        -1.72256155703321    0.12320578363411    4.56172047950236
C        -1.64426315924349   -1.59373555230919    5.14677910489146
C        -1.80881270550087   -0.06407689173576    2.78114551935677
C        -2.13744947902363   -1.21679225354108    2.09100305809649
C        -2.12804120488894   -1.18553854685246    0.70478578698545
C        -1.81830996048178   -0.02995236214166    0.00678214250408
C        -1.52239748241934    1.15139332781408    0.67732984727864
C        -1.53783105922744    1.10472288158465    2.06472770236524
H        -2.05335061719877    3.23382909430716    4.80496245683217
H        -1.45276017756609    3.73322363290918    6.40586429565744
H        -1.50084983591005    4.91559571197757    5.07755429173242
H        -0.93555163362039   -2.16796247739814    4.55810996080817
H        -1.32699743793975   -1.55094146488391    6.18570437569142
H        -2.63923481081545   -2.02768033154549    5.09097704778490
H        -2.99420366736802    3.38863554018246    1.00563843804504
H        -2.44894747294616    4.25554009346794   -0.43253720141086
H        -3.32707304691795    2.72962206095876   -0.59723676330522
H        -0.61200394866648    3.32282120014248   -1.86911091995976
H         0.20354289641471    1.81465165594498   -1.42959479316983
H        -1.46598620289958    1.80818182398900   -2.01529864351727
H         1.94585791704979    5.30760993871492    3.35983753073734
H         2.10575848502114    5.67248685093796    0.91899464038389
H         0.72610348015833    4.39008492439801   -0.62468847047518
H        -2.38499757051656   -2.12881381162546    2.60873825433986
H        -2.37228624651990   -2.08363653460939    0.15999028594618
H        -1.82295617161660   -0.05721631346388   -1.06952719929022
H         1.04062028359859   -1.35233114749851    2.86469243272004
H         1.58829448709355   -1.37519955548382    4.61923653266101
H         2.44563470572996    0.61783290538937    2.40399511321810
H         1.89057510690376    0.61470597091911    6.43583537285645
H         3.26358130883713   -0.39493119663920    5.92491369599070
H         3.53624426304335    1.26714729615151    6.46417661501663
H         4.54445562263056    2.18458686554912    4.26457317102176
H         3.27541592863862    2.73157892472733    3.16077925748757
H         3.22211501972789    3.16624083089579    4.88213035245337

