41
CSD_code = TAFSUP | q = 1 | S = 0 | Stoichiometry = C15H22Cl2NTi(1+) | MND = 12
Ti        2.59321620545978    0.60292394769816    4.66787918297353
Cl        3.14999516640783   -0.01898763217527    2.60184400618204
Cl        2.91660635341391    2.74159365273395    4.12233649750846
N         9.63398417969702    1.94954555579959    4.06875145810767
H         9.60165393917096    2.35146820038127    5.01344049947912
C         0.82113930311040   -0.46187524601079    5.76576996202294
H         0.87570340836805   -1.18510627287541    6.56716726652679
C         0.73727373218856   -0.76004515319888    4.39154182330430
H         0.75002403438619   -1.74889407020350    3.94933570518601
C         0.44773437323644    0.44565730106782    3.70389249433387
H         0.22605053768689    0.53613236570406    2.64770284668104
C         0.37686627351324    1.48164446064759    4.65219546861783
H         0.08826319800628    2.50550855205156    4.45227712176856
C         0.64617766590838    0.93214375963215    5.92477808971389
H         0.55876505777857    1.46103158231229    6.86528723905602
C         4.89879748545740    0.62786239405543    5.09941448475657
C         4.53630389394590   -0.73913515008485    5.04637337749399
H         4.92057346649517   -1.46930804913926    4.34595194090708
C         3.65693844580428   -1.00240380158669    6.10973482098866
H         3.29716123652743   -1.98189510666174    6.39316941070034
C         3.48987878256944    0.19365387471436    6.84653253763193
H         2.97407113635659    0.28842652053877    7.79215485570980
C         4.25706577162654    1.19681275032591    6.22929731604600
H         4.39862692456710    2.20568618409254    6.59632886405609
C         5.84263973518091    1.32393045763096    4.16174821437806
H         5.58546089255944    2.38544016671597    4.11970658936473
H         5.72032731734721    0.90115265167640    3.16030537895804
C         7.30362079765562    1.16127903501355    4.61273674266688
H         7.42041811818523    1.62121675370992    5.59712185903410
H         7.51929043495090    0.09627224726505    4.70149208168054
C         8.22352490734517    1.83461445027361    3.60054760066917
H         8.22003226279410    1.28307719271337    2.65869578899549
H         7.85089630913727    2.84296032543075    3.40651371672370
C        10.29732978640400    0.63708522589871    4.16234136900525
H        10.32793087487103    0.17302076117237    3.17803370789293
H         9.75752804033027   -0.01510367826618    4.84438204870482
H        11.31629613042889    0.75468484894318    4.52636582227249
C        10.40805329898248    2.86192407738592    3.20772752657249
H        10.43316495350158    2.47193615911149    2.19157426154984
H        11.42917656651450    2.95427862235723    3.57320633293813
H         9.95213900213543    3.84999008314869    3.19214368884584

