67
CSD_code = TAFTIG | q = -1 | S = 0 | Stoichiometry = C18H36CdN3O3S6(1-) | MND = 6
Cd        5.29037633624242   13.53885630902131   12.22801318186519
S         5.01051843360154   13.01058745595357    9.59232889671246
S         3.16695256648402   14.77337618169227   11.06631163837864
S         7.15811591003996   15.47799452873159   11.92542211141199
S         7.81053178345340   12.72479547911206   12.74718442184590
S         4.54434568220053   14.01020895247429   14.80327088430248
S         3.75251035292599   11.59633236323239   13.31219092469548
O         3.21064359564296   11.84996608796445    5.68782296947427
H         2.69083887074714   12.44200464091139    5.13180316537516
O        12.17394334698926   11.98319003488072   12.22352203291607
H        12.86035146049798   12.63601774289278   12.40366320108658
O         4.38397641937187   14.32783865138024   17.99268030163381
H         4.72958931860868   14.57412411986906   17.11771785732647
N         3.00943171518363   14.29044500946012    8.46806237793449
N         9.60056585087477   14.63283385446072   12.50326773884322
N         2.76128257687382   12.27985560910772   15.67022781729659
C         3.67346251357587   14.04867929557701    9.62217280598292
C         3.49628823784406   13.73133467877852    7.22820790876388
H         4.58907179054599   13.78932070254157    7.21077427322439
H         3.10314661949679   14.33000606978284    6.40173772945897
C         3.07484117966609   12.26390594221173    7.02858458814052
H         3.71960794928530   11.61023816798294    7.61604268724185
H         2.03829720076641   12.13029393733877    7.36796418495567
C         1.91135603806982   15.24366825354647    8.42029565715757
H         1.62558108570288   15.41187431089019    9.46362998257910
C         2.37467423250911   16.57911631882869    7.83406395224374
H         1.57680921399608   17.31330142488907    7.91233315432308
H         3.23439361842784   16.93946321126755    8.39291217266890
H         2.65466234573955   16.48197568464689    6.78649370477777
C         0.69726202344025   14.68973943901351    7.67751259406751
H        -0.13157625746226   15.38584821671763    7.78304447282366
H         0.89417467568962   14.55684550732337    6.61547750560835
H         0.39962661687006   13.73558970074629    8.10467639147451
C         8.29097273451099   14.31053269091846   12.39846973278144
C        10.54718895614940   13.64997392300990   12.97798369706472
H        10.09769409201289   13.08355494732121   13.79945611756802
H        11.42729199917047   14.17525043620932   13.35911206281649
C        10.98919059685241   12.66544630644871   11.87949737789516
H        10.22671408198952   11.89933082111737   11.73920600867271
H        11.11964010766481   13.20671977862440   10.93219443636071
C        10.05657347988931   15.99954204899177   12.30146990205191
H         9.22215543579017   16.51713024947738   11.81748693746131
C        11.26618609854142   16.07275743649593   11.37171070110195
H        11.48426852967413   17.11564354378706   11.15386212310556
H        12.15255722202357   15.62831966167962   11.82017970684948
H        11.05051136949838   15.56511025617831   10.43509908896244
C        10.32852753000840   16.68692574262478   13.64136671113608
H        10.55321002211696   17.73781968681195   13.47759602823482
H         9.44542025453942   16.61455635236801   14.27070588380385
H        11.16778991867678   16.23097950179491   14.16370637067551
C         3.61030829845648   12.59856567408829   14.67084491663486
C         2.57681690810028   13.18879214124214   16.77861779119349
H         1.61457785084161   12.97273451028043   17.24109026689319
H         2.54976050120737   14.21363261439273   16.39197858923814
C         3.71592669268105   13.10941037946718   17.82484906471280
H         3.31848366904104   12.84936292142375   18.80999528648532
H         4.42016099893954   12.32348566992079   17.51606226105297
C         1.95411271405727   11.07175704912364   15.62163273815253
H         2.38096322174360   10.46251373955451   14.81840467694241
C         2.04413355170621   10.28178626513899   16.92557794581857
H         1.54783778394782    9.32278351652672   16.79728080970534
H         3.08444843487479   10.10087093522932   17.18249485643099
H         1.56835824419127   10.80655024249410   17.75090013333084
C         0.50686636837814   11.40064582011514   15.25169771872410
H        -0.05794865588145   10.48174074247090   15.11618208602920
H         0.02330129802452   11.99465335617162   16.02503551995946
H         0.49034638682446   11.96019315530716   14.31993916560989

