39
CSD_code = TAFWEF | q = 0 | S = 0 | Stoichiometry = C18H16Cl2NPPd | MND = 4
Pd        7.15612696324379    5.41900369583116    7.37800204887379
Cl        7.41092918315185    7.61859593347163    7.16784681718171
Cl        9.26364056528666    4.95498958939621    6.73462960208594
P         5.12426766787770    5.55536910106071    8.31415973485395
N         6.86937006105806    3.29345461193258    7.51947664410772
H         6.74069131730179    3.05838166406802    6.52930667449950
H         7.75749992435342    2.87377614176437    7.81061373804827
C         4.80416906067658    3.79928251520577    8.72911469556729
C         5.76013704482797    2.86375869707951    8.32158890672644
C         5.62737480260184    1.53379672644565    8.70256411375991
H         6.37151960972363    0.81188103330971    8.39625183094029
C         4.54992291202764    1.13602081703049    9.47425035310522
H         4.45448944131947    0.10138677702768    9.76607273109369
C         3.59811993467700    2.06135759408691    9.87364530756697
H         2.76170228691746    1.74798643420075   10.47942610048658
C         3.72810283736550    3.38825800534003    9.50832429806105
H         3.00170229985001    4.11833374428386    9.83403941740716
C         3.55762109064489    6.24953442000956    7.73492629829627
C         3.47928055483517    7.64158112819741    7.69232418658828
H         4.32126102721652    8.22594980158281    8.04080266144088
C         2.34399732829439    8.25178965374195    7.19589994114310
H         2.27995762736356    9.32910239932164    7.16680779594736
C         1.29113369019136    7.48015468417496    6.72656821462490
H         0.40393421506917    7.95752560136455    6.33802456467222
C         1.38033481551953    6.09781602913084    6.74068982929247
H         0.56567798206645    5.49947309161871    6.35964342502279
C         2.51456057361890    5.47761751011195    7.23494897669083
H         2.59007951310045    4.39864257456482    7.23371664634979
C         5.34020950056692    6.24960791627317    9.98358197892479
C         4.28612357749480    6.69229395037544   10.77493223128983
H         3.27562799588727    6.67499152620993   10.39065678090064
C         4.53877269752376    7.17610970081395   12.04627249309045
H         3.72082166100970    7.52643554050087   12.65856526323754
C         5.83558048239268    7.21744167153841   12.53181853686946
H         6.02676139178268    7.60121645216178   13.52275305801041
C         6.88911173294691    6.77838444699997   11.74484157774497
H         7.90012485650533    6.82267360952204   12.12055756768979
C         6.64475175517982    6.29468148011134   10.47312837859241
H         7.47551001852776    5.96784373014202    9.83252657921506

