23
CSD_code = TAGHIT | q = 1 | S = 0 | Stoichiometry = C5H12ClN4Pt(1+) | MND = 4
Pt        7.01105234661831    7.19271831932965    4.54537489095375
Cl        5.88865912887614    6.86020598427481    2.61152424487681
N         6.13158994272755    5.45087907623618    5.21605185894338
H         5.75564144758201    5.02920771160170    4.35803184122409
H         5.33597185808032    5.67013969779042    5.82073704811448
H         6.72098762758796    4.76620532861870    5.69197739253241
N         7.71607643180484    8.93725694029965    3.70100129534993
H         7.21129813600039    9.74464345100187    4.07521014463453
H         7.45519609113682    8.84332466926747    2.71173422099501
H         8.71800295484350    9.12418409626205    3.76337616770432
N         8.05430795963749    7.49573825027659    6.31798131804201
C         9.32233787925228    7.07139418990502    6.44574293119192
N         9.88019230993560    6.45093089560315    5.38714722609261
H         9.31062957935779    6.25418656568943    4.57127702699203
H        10.80292148604779    6.06056828865537    5.44907080486148
C        10.03513786865072    7.29123764635864    7.63810829240272
H        11.05134007010087    6.94113369798842    7.71590708826665
C         9.42147824154241    7.94736189496931    8.67627132619331
H         9.95177089152494    8.12457694587882    9.59807176595939
C         8.10232529205785    8.38329532281173    8.52710249615493
H         7.59422834047807    8.90041060611796    9.32245695858508
C         7.46431217377617    8.13635500498876    7.33686114441351
H         6.44304194238032    8.45354541607376    7.16698251551554

