25
CSD_code = TAGHAK | q = 1 | S = 0 | Stoichiometry = C8H12CuN4(1+) | MND = 2
Cu        2.51995602537607    1.45639615772070    4.26705189297255
N         1.52877026639772    2.49948393653763    2.99542008285108
N         0.53932204124879    4.16719010542120    1.97076364397206
N         3.49521987853727    0.38329405771607    5.52611158700686
N         4.60565189277838   -0.27817366208764    7.29797240921544
C         1.27056291224723    3.79871566483971    3.02592806942182
C         0.93118295003485    2.02017256284261    1.86417361567552
C         0.31458908148084    3.05183336206657    1.22322870577374
C         0.06489457423325    5.48886114186036    1.66727601381957
C         4.00508049455998    0.74992528362424    6.69281284377179
C         3.78682240603097   -0.94391822871808    5.38462437113866
C         4.47657436685535   -1.36077072333886    6.48272616092112
C         5.26340214140595   -0.26475678684476    8.57517447036703
H         1.60028839794557    4.47472872292026    3.79021161082346
H         0.98146309788764    0.98685611945391    1.58836309414991
H        -0.25152218026711    3.07284371485095    0.31565008643781
H         0.43137675068957    5.80481818659433    0.68984799576964
H         0.41767763451977    6.18769251226974    2.42260761694467
H        -1.02579562435631    5.50298078614144    1.65033555124676
H         3.95017188000049    1.73783122295499    7.10617007543994
H         3.48959642391652   -1.50279959021120    4.52111984541614
H         4.87377774778091   -2.32134990093603    6.73596709023826
H         6.29313576031059   -0.60829218429366    8.47093119072256
H         4.74599790436405   -0.92492116256585    9.27287499028257
H         5.26410317602246    0.74615870117869    8.97695698561557

