69
CSD_code = TAGMEV | q = 0 | S = 0 | Stoichiometry = C33H27N2NiO5P | MND = 4
C         5.68744276598956    2.96826599030847   -1.58265258153506
C         6.77273738017480    3.65202947086765   -2.29018580503167
C         7.26003875630288    4.85453559490391   -1.77682718949182
H         6.81532444788070    5.23700893560445   -0.86963937577603
C         8.28198553929598    5.52960797090359   -2.40793662344774
H         8.65198006224779    6.45807663593287   -2.00044591482990
C         8.83222819435944    5.00686165697746   -3.57119913630084
H         9.63247138553574    5.53106826416306   -4.07252265755800
C         8.36553150855342    3.81902321971705   -4.09354129863616
H         8.78483610706784    3.40060385083092   -4.99510600379753
C         7.33402892142294    3.12018838753803   -3.46532665864042
C         3.73855056539031    0.14748740976000   -1.55842478328929
C         2.69762695054846   -0.44744936409602   -0.76739758730709
C         2.09875585207650   -1.71274939037059   -1.14436302231227
C         0.70714477950788   -1.63170052915489    0.80557056536365
C         1.21561312629139   -0.44918539140831    1.19350562242472
H         0.88950822289052    0.04600507034366    2.09203787194327
C         2.23425214820286    0.19864364004979    0.40834918581734
C         4.30991550409782   -0.49842462291871   -2.78261011338415
H         4.15123543590418    0.15845656816958   -3.63718182798902
H         3.85560957373645   -1.46108361106396   -2.97409325803026
H         5.38563178086998   -0.61170862463806   -2.65264124675787
C        -0.34779799932188   -2.39592801453151    1.53425195899560
H        -0.63891327424087   -1.87493486751188    2.44032560530820
H         0.02519233927547   -3.38726823213194    1.78513110344337
H        -1.21656302844676   -2.52584152466945    0.89110027504579
C         5.05499930627393    4.73766458071515    2.37671430868817
C         5.10856815752561    6.06602414081351    2.77870844777970
H         4.21760264405848    6.67664095840833    2.75442301448490
C         6.31066838357257    6.60814000423208    3.19971634582049
H         6.35264488812773    7.64259627552763    3.50799050142303
C         7.45880075605439    5.83355161148282    3.21864257064655
H         8.39495061544159    6.26504666208881    3.54054537839984
C         7.40965002225927    4.50826507337171    2.81568966464403
H         8.30623608809133    3.90636121150651    2.82298883746688
C         6.21161695762690    3.96314323153571    2.39487460475325
H         6.15670396780316    2.93303295142581    2.05886597210391
C         2.72945740601092    3.34173785037311    3.30784387374454
C         3.39354018940808    3.25033763045811    4.52453591520057
H         4.42178392688573    3.57446232941910    4.60383741309277
C         2.73506900924156    2.74800557135280    5.63407509950651
H         3.25203503277972    2.68300574847544    6.58029980071487
C         1.41996756184268    2.32668864827276    5.53336809867968
H         0.91133278995703    1.93220733954810    6.40055148666438
C         0.75730399242912    2.40739755373702    4.31786583454341
H        -0.26822102849920    2.07582953921665    4.23922154240848
C         1.40894025890098    2.90943939295277    3.20814144593581
H         0.90605457620744    2.97099756196964    2.25274595449219
C         2.47853639443332    5.32137753636608    1.29066271287708
C         1.71186108717118    6.04732450335345    2.19672755266634
H         1.70551144056788    5.77214313880718    3.24238050094984
C         0.95269086842929    7.11571253432795    1.75339714030338
H         0.35704970797387    7.67863266944043    2.45723661140557
C         0.95395285269892    7.46477061469453    0.41214448106688
H         0.35796814648254    8.29890765722136    0.07270988367942
C         1.71386430905869    6.74192589335528   -0.49344771482579
H         1.71136076671514    7.01166185941358   -1.53908147612666
C         2.47211551390246    5.67141345814955   -0.05575461614723
H         3.06846433170152    5.09074798508672   -0.75021025008485
N         4.25268198067252    1.30868788108202   -1.22103085881076
N         5.25188968675388    1.81212358153234   -2.01413096674581
Ni        3.87754223942725    2.45273369964604    0.19712946884478
O         2.64223687510961    1.32583788275307    0.85422916528741
O         5.17595649713975    3.52475937271344   -0.53068801390891
O         6.91908239763116    1.96821378943067   -4.00898482632987
H         6.20119379968803    1.60359559778154   -3.43621895161266
O         2.33544842948380   -2.39500051783742   -2.11590347505497
O         1.12380570362868   -2.23418638876161   -0.31348558047357
P         3.53591442373032    3.92335289098719    1.78589599760642

