14
CSD_code = TAGTAW | q = -1 | S = 0 | Stoichiometry = C2H6Cl3OPtS(1-) | MND = 4
Pt        1.50455043494984    8.80215620006945    6.71048895299213
Cl       -0.15341365436403    7.60320574675969    7.75687175012498
Cl        2.67324159693437    8.98920612069582    8.61940688812781
Cl        3.06376757569785   10.02856475014359    5.54961396558558
S         0.32764557634634    8.61262530220468    4.77457471746412
O         0.63569352951126    7.49839078010196    3.89039267472787
C        -1.49003850880466    8.59049007139187    4.99189934121009
C         0.38194453032538   10.11347172725807    3.72832376327653
H        -1.78087286383316    9.50034826165942    5.50273935991532
H        -1.72654486507086    7.73183762735279    5.61025645801768
H        -1.95254008134259    8.50721823272673    4.01537734389983
H        -0.04742498477927   10.93454849198150    4.28986567944665
H        -0.16825493005654    9.91590389825140    2.81581601642505
H         1.42654664448608   10.31633278940302    3.51817308878642

