55
CSD_code = TAGZOR | q = 0 | S = 0 | Stoichiometry = C26H14F10PtS4 | MND = 4
Pt        3.70963566817718    6.42636044841307    0.37051007823281
S         3.77621934146460    8.05427614534124   -1.31464463507624
S         3.51206329288667    4.73353329716189    2.09672914181485
C         5.24839188834719    8.93417476251410   -1.10332372617710
C         5.38870152998652   10.15441071364150   -1.78696502197256
C         6.54607370830103   10.90656942088699   -1.70150565603649
C         7.62097379957932   10.48967412424880   -0.93094744597935
H         8.51863804564491   11.07904518309804   -0.86564400299832
C         7.49902415534544    9.29206921336192   -0.25210020071929
C         6.34722340527979    8.52883957759672   -0.33730053689753
C         5.21139037443948    4.23421439753508    2.33596635032959
C         5.61913760645712    3.59668756203074    3.50117758557053
C         6.92372229908663    3.17562334025994    3.67373878092517
H         7.19971981064407    2.69465567521219    4.59859280420654
C         7.83672395311812    3.36874686942572    2.65101668914204
H         8.85579278417097    3.03938301083475    2.77820977443820
C         7.43903854861772    3.97483770462018    1.47060239663719
H         8.14436817599930    4.12148536229706    0.66888553491737
C         6.13347531781029    4.40167467476526    1.31200231774569
H         5.81781451120555    4.86895049038590    0.38842013965754
C         3.24541263263871    5.82900114804796    3.54228192421473
H         2.19938730366595    6.13444423685490    3.46478379909363
H         3.37186577943029    5.23491008006733    4.44665507495855
F         4.36507523122137   10.59752641889146   -2.53212478593972
F         6.63529138237616   12.06732845994087   -2.36586451670421
F         8.51668128718630    8.85533085999415    0.50869985987353
F         6.29636779504245    7.36119968285440    0.34965928277871
F         4.73448890358126    3.38973640180828    4.50152357140207
S         3.64329521917351    4.80058920840756   -1.31637858478144
C         2.17226278891350    3.91901576636492   -1.10420045708742
C         2.03284625785148    2.69862339565446   -1.78774121929848
C         0.87631365150917    1.94524640802000   -1.70159121150346
C        -0.19855293389308    2.36095331829880   -0.93034798947177
H        -1.09552887662536    1.77059591852991   -0.86447097506045
C        -0.07747256137441    3.55869388605079   -0.25158356309498
C         1.07342563260507    4.32319217958682   -0.33756607243561
F         1.12337593508344    5.49095865231384    0.34923290725710
F        -1.09509792031366    3.99432639563821    0.50989610556284
F         0.78791444740331    0.78440488080847   -2.36591877535194
F         3.05649393677780    2.25656588745621   -2.53349608823202
C         4.17237234606907    7.02179619776176    3.54324446499081
S         3.90743276838018    8.11813019056693    2.09803183271870
C         2.20834183240264    8.61847925157274    2.33692967921155
C         1.80126922016256    9.25705070007314    3.50181079912988
C         0.49693701460919    9.67883467788740    3.67448701599071
H         0.22146172178036   10.16069728220329    4.59903871355889
C        -0.41649372078130    9.48526974548092    2.65222269202158
H        -1.43536816327802    9.81520852627743    2.77949136984863
C        -0.01948668515252    8.87805024234275    1.47216241556520
H        -0.72515360723920    8.73107568563943    0.67080399248782
C         1.28586293987488    8.45057667542531    1.31341612455070
H         1.60103534909296    7.98249498065571    0.39008347461064
F         2.68637741083614    9.46423575790434    4.50168718355346
H         5.21848866111653    6.71638795304748    3.46691785261555
H         4.04474879900156    7.61535696706215    4.44780373285678

