71
CSD_code = TAHBOW | q = 0 | S = 0 | Stoichiometry = C30H30N4O6Pd | MND = 4
C        -5.87648947359983    8.18062619192839   14.75674675014180
H        -6.76164790625101    7.54522904156280   14.65356480992075
H        -6.12677516038761    9.04474946946709   15.37029286868239
H        -5.07237723219542    7.60986444956936   15.23135769951588
C        -5.00693546816811    7.83314403721256   12.57268050556921
C        -4.58049333162614    8.39861292728713   11.37071479519715
H        -4.67382114104318    9.46554465064415   11.24264958500899
C        -4.04521609889478    7.60787444031813   10.37599704597874
H        -3.74425904804417    8.06993770419127    9.44527044037539
C        -3.90684594976341    6.23610657268450   10.55333377036937
C        -4.36817956631000    5.67526550470729   11.73826870401420
H        -4.30959975023984    4.59968436386469   11.86897449182369
C        -4.92635630654161    6.45507044108271   12.73681965571501
H        -5.27798079627108    5.98336755847443   13.63995209576052
C        -3.27108800874403    5.34133671932823    9.52572637341344
H        -4.04074064305187    4.73137646599083    9.02875215098095
H        -2.76680040541843    5.93080654862817    8.74731862200201
C        -2.47965013540022    3.13673461628284    9.86660204941433
C        -1.59896021642352    2.25403922659607   10.71575962384180
C        -1.59259917038270    0.86528505105596   10.66163275565070
H        -2.21469677370467    0.37228453886805    9.93139526257873
C        -0.79179788314201    0.16913212800131   11.55494680478623
H        -0.76668248009087   -0.91016570432887   11.53479368731372
C        -0.02632961582867    0.86750988377655   12.47821006425309
H         0.61209627407051    0.37397099666171   13.19380940471143
C        -0.08045249272156    2.25568506141114   12.47561496573170
C         0.78310585904497    3.15114561597747   13.33220950703831
C         1.45873576869583    5.41285912643798   13.58754351114286
H         2.25162915030287    4.88121864987642   14.13516119856030
H         1.02925368953331    6.17049017468703   14.25733643921891
C         2.05957289087606    6.09258538948232   12.37887214153270
C         2.57414444571487    7.38219178519332   12.47369915458656
H         2.50686200609442    7.91553236979226   13.41113311917834
C         3.18052533302378    7.98449976944383   11.39323168931226
H         3.58516616014273    8.98163738515920   11.46390081188369
C         3.29370120620500    7.30860015615944   10.17554543969948
C         2.77310934767172    6.02299368442150   10.06825943536362
H         2.84309379775846    5.47091670011945    9.14458484980173
C         2.15377422657371    5.43032329405067   11.15972292366734
H         1.78628377739047    4.41016301536635   11.05639522366920
C         4.00756405762408    7.38277374691491    7.90688828905989
H         4.60223115382970    6.46475010599520    7.94590649803292
H         4.51022926784862    8.10926978366095    7.27070455305557
H         3.01881384910632    7.16177423599954    7.49235707440169
C        -0.28272493672667    7.32522763817180    9.94165230266211
H         0.78363182268996    7.57191479741889    9.94480430356983
H        -0.38949388320926    6.22611506228351    9.79689032827614
C        -0.86977159072767    7.71424163682904   11.27704154718590
C        -1.04280040034422    9.05964926721571   11.57646556264859
H        -0.74918940091927    9.79781994615510   10.84765804408996
C        -1.59576221474459    9.41205360577785   12.79188106686115
H        -1.75166891676180   10.44716426283862   13.05197407645004
C        -1.94960973778334    8.40379880652169   13.67316122483990
H        -2.40246303141332    8.64019725184976   14.62271628606256
C        -1.74795392461897    7.08049208331307   13.31198439241154
C        -2.11857118508913    5.94628066443141   14.24709624321295
H        -2.71331325543728    5.20124272698581   13.68589847170317
H        -1.19772432939815    5.44776586787668   14.59072882346850
N        -2.33930512685487    4.43345416882737   10.17019572142665
N        -0.84403862479722    2.90079436890812   11.59602744631833
N         0.46620842888868    4.44568020420784   13.18002218685175
N        -1.22308886856351    6.74724533968029   12.12398294277523
O        -5.47114195326785    8.70288327633567   13.51135605767122
O        -3.24158093391528    2.65758193296777    9.03103558308284
O         1.68046201940422    2.69487559869804   14.03364958818349
O         3.91019658382735    7.99063369572056    9.17307877295907
O        -0.82761642298842    8.05734985603158    8.87576116724837
O        -2.90917626144211    6.34532519645050   15.33981843131896
Pd       -0.98281527099292    4.77986387429485   11.74105121265895
H        -1.76955783166326    7.85603654263616    8.80944118331432
H        -2.35134796047531    6.76371445357396   16.00469019078349

