109
CSD_code = TAHLAS | q = 1 | S = 0 | Stoichiometry = C54H44F4IrN6(1+) | MND = 6
Ir       20.54860381209177    7.24688623842485   14.08328836875631
F        23.07239618220322   11.84874177305326   15.38679621363286
F        22.67418039424771    8.58968114154773   18.70738232530748
F        25.01573053282387    4.25035248642846   13.53277510765997
F        23.90700118505324    7.14344094270798   10.03699859641472
N        20.71485085826419    6.16048245817862   15.78640307023612
N        20.57630585437463    8.38107269002445   12.40779548441145
N        18.55811873609942    7.78211203336720   14.78486704322355
N        16.40276591696048    7.35651465658719   14.95004866274124
N        19.19937414403676    5.90125748006829   13.03714587031189
N        17.17146632591408    5.16205347605618   12.60033688168318
C        21.36652073863196    6.74908559676438   16.81878117074728
C        21.56433460455382    6.06330277824090   18.01398948298367
H        22.09258710711315    6.52251931092781   18.83158975128438
C        21.09463584054525    4.76597688405818   18.16854954040737
C        20.41502634294187    4.18934175525579   17.09628925291866
H        20.03360894609131    3.18276855274247   17.16484483700036
C        20.25758281143364    4.91897216281773   15.93786461324869
H        19.75441409807448    4.48074838635863   15.08642451760837
C        21.83373127462779    8.10049681280992   16.52742212083633
C        21.60990406122756    8.54164961804879   15.20098140543968
C        22.04119445948874    9.81113264809020   14.84017706238878
H        21.90406415055081   10.19223427838289   13.84017037440714
C        22.67132845339204   10.62484007397189   15.76529047239324
C        22.89138553756601   10.22256163446118   17.06967238737147
H        23.37826714303684   10.86528517679056   17.78391388364678
C        22.46662340151069    8.95936754843123   17.42832399669625
C        21.32689825678694    4.01990018819969   19.42128224860454
C        22.53303277097264    3.33976229679527   19.60047134812589
C        22.73666262440768    2.64208712993830   20.77955852053783
H        23.66665193698585    2.11191100241057   20.92384953279375
C        21.77444718587716    2.61041855784780   21.78044420161999
C        20.58523398405450    3.29680125526652   21.58095409147557
H        19.82906850284941    3.28395536493557   22.35251689414530
C        20.34601808980395    4.00236934248280   20.41222230705868
C        23.58158701681726    3.36621078161849   18.52898304154455
H        23.93705472820100    4.38305102785462   18.36476225470383
H        23.18031612864660    2.99813525544665   17.58495124766863
H        24.42947639321200    2.74744539572660   18.80827593633825
C        22.03151902924000    1.86863526537530   23.05442445025049
H        22.55165621246274    0.93364649910787   22.85896076889191
H        21.10294255107638    1.65499097832435   23.57727279241454
H        22.66123240775698    2.46885857828266   23.71132259768586
C        19.06061224674388    4.75092923927550   20.21283521276164
H        18.41393761291791    4.63615024613877   21.07836997600050
H        18.53171441133768    4.38451659766524   19.33252544997046
H        19.25750297456960    5.81281360270541   20.06549338658068
C        21.61857690895781    8.19123145240062   11.56244036766141
C        21.75858180472089    8.97517635553709   10.42164216412615
H        22.60080144979064    8.84340081275003    9.76487393330340
C        20.82898553894804    9.96424220248695   10.12650677197614
C        19.75640735213861   10.12648521774929   11.00390039425052
H        19.00086678827661   10.87233329616757   10.81453017019825
C        19.67836692130127    9.32187799600690   12.11974298520573
H        18.86688590079066    9.44549958791889   12.82436411946614
C        22.54469921623079    7.14999126640090   11.99578851211711
C        22.27271221858230    6.59855763755482   13.27048879134789
C        23.12576402983169    5.62393243051981   13.76987138494281
H        22.97230569223476    5.18182205590128   14.74202489634160
C        24.21118503748573    5.19748413902173   13.02448609786828
C        24.48515427857291    5.70286626926521   11.76701508840021
H        25.32588503973468    5.35529925712697   11.19024348624010
C        23.64132084712030    6.67706122081281   11.27305438839666
C        20.98354399683853   10.81869072438252    8.93416133338342
C        21.39027294489957   12.14738347602042    9.08620588486165
C        21.53386488691515   12.93540869594115    7.95705097914478
H        21.85377314610447   13.96135339086353    8.06708831731511
C        21.27906227833093   12.43778118063853    6.68510990417814
C        20.87898507334938   11.11622967001471    6.55828355730829
H        20.67936954519944   10.71330853169608    5.57598616883949
C        20.73212921366751   10.29474725458205    7.66565757506662
C        21.69428726646860   12.70121721547348   10.44693608502356
H        22.38961055273232   12.05454586759601   10.98077907632196
H        20.78788367954281   12.78368489438131   11.04594611535552
H        22.13668827379106   13.68990433340643   10.36398569569921
C        21.44924033566951   13.31633858543629    5.48589044441559
H        20.89464090121831   14.24463544094325    5.61113116400582
H        21.10291841359899   12.81956622147135    4.58370824114626
H        22.49994371533400   13.57376988559116    5.35676546747781
C        20.30139477273491    8.86679236675793    7.50005509810039
H        19.92016066883395    8.69923031072548    6.49631941862398
H        19.52467887066582    8.60575849260345    8.21803701590384
H        21.14427063512351    8.19456429288099    7.65894186027951
C        17.56402989686845    7.01570082559437   14.33285725969649
C        16.69871014549144    8.36665391487909   15.81781192834333
H        15.95010178798089    8.82107630031617   16.43269635321443
C        18.03470482276531    8.62035129070773   15.70330491253395
H        18.64027591107841    9.34239892044281   16.21200349008073
C        17.90733585967756    6.02723666015152   13.34399256190641
C        19.29595784067703    4.94502934720455   12.08996991054683
H        20.24212814492136    4.65868704403144   11.67824464064154
C        18.04533787699972    4.47339941556017   11.81226577499164
H        17.71593176069841    3.72188804650314   11.12549721598957
C        15.07301058965861    6.79591650196359   14.81488341780745
H        14.66649696278181    7.05070661125732   13.83131466173034
H        14.44672554510027    7.28119626252463   15.56628697178553
C        15.07382011399862    5.30769588024109   15.05069100591206
C        15.36814572723833    4.41104810863000   14.02446276502916
C        15.37135214118709    3.04692969524935   14.28896876775998
H        15.59517403431995    2.35216466752502   13.49301412652301
C        15.08562586811664    2.57083814216856   15.55537908482827
H        15.08577922106651    1.50892072957827   15.74373816809655
C        14.79826435465131    3.46119093186414   16.57609593149593
H        14.57366146150669    3.09856617137085   17.56667134144694
C        14.79258996816410    4.82036719132557   16.32138016046439
H        14.56136743098041    5.51331023562645   17.11680692682517
C        15.74898371206266    4.89553454535167   12.64880622271031
H        15.53945874769182    4.11891425830540   11.91078228556573
H        15.19774390124378    5.79343907261357   12.35716240682040

