77
CSD_code = TAHMAQ | q = 0 | S = 0 | Stoichiometry = C38H34NiP2S2 | MND = 4
Ni       -0.44176701886264    1.98480749916296    3.90731297853021
S         0.50958384695998    0.71089747704184    2.17444512675391
P         1.38384915532986    3.10516943283208    4.22945614689758
C         2.05633089527731    1.58759064581356    1.96235970918257
C         2.84947361322140    1.20315729999670    0.89187936279877
C         4.07900931430872    1.80174424157863    0.69130436775983
C         4.51288686619608    2.78745377517374    1.56441298244231
C         3.71522984464578    3.17640205834257    2.62305008098230
C         2.47119920574175    2.58868393144744    2.83560011354693
C         1.21728623515697   -0.75624833007800    3.00042917981887
C         2.49980103093309    1.69466768733893    6.28657089250190
C         3.38952668805491    1.39427056002182    7.30047628701023
C         4.38332159577174    2.30038363602218    7.63134811383994
C         4.47319477530477    3.50543953170866    6.95327990371763
C         3.58617297329352    3.80445716518392    5.93493478578707
C         2.59642616483638    2.89278434043098    5.58630146205742
C         1.17801984222751    5.72806674144232    5.09871194752524
C         1.10419236759073    7.09909861177963    4.95134036716546
C         1.22643035113071    7.66937827817564    3.69455401214351
C         1.40036264018277    6.85958042697219    2.58510408752075
C         1.47693074431018    5.48686341423701    2.72994598038863
C         1.39806896063688    4.91049352175806    3.99304108944815
H         2.49435647552755    0.43628058141410    0.21887040454048
H         4.69562095714698    1.50231542582695   -0.14330919270724
H         5.47417703178574    3.25696471358309    1.41460241393330
H         4.05401560179165    3.95025296524359    3.29506370297252
H         2.03214509894878   -1.14062390620470    2.39295065957472
H         1.57378168284176   -0.48582757437140    3.99075115463415
H         0.42521228900547   -1.49501696522378    3.06863855549252
H         1.69581181285674    1.01080533851104    6.03692711139751
H         3.30599583054312    0.46061340109857    7.83834745223765
H         5.08139679038064    2.07412920574884    8.42439433623881
H         5.24069233927640    4.21797794163845    7.22124461896610
H         3.65438496857374    4.75600681483489    5.42652500799183
H         1.06975289973178    5.27618759130508    6.07609979388723
H         0.94683334983372    7.72684181931600    5.81680004926235
H         1.17308801039045    8.74215505225660    3.57918354594196
H         1.47563823678950    7.30005441998904    1.60094513985067
H         1.59980607367981    4.85669755237070    1.85976210946132
S        -1.39239747644633    0.71112814461011    5.64035894995033
C        -2.93936720167910    1.58733250197180    5.85279443700964
C        -3.73199312346567    1.20310676592255    6.92374562928546
C        -4.96124529248113    1.80207357362063    7.12506903300142
C        -5.39530808572841    2.78803762172813    6.25233872434681
C        -4.59804817541894    3.17695749249153    5.19339010020910
C        -3.35433075180757    2.58880955059583    4.98003699015890
P        -2.26723958592800    3.10580681117116    3.58612607715470
C        -3.48059144202546    2.89333115384363    2.22999758194829
C        -3.38382384920025    1.69526585178754    1.52960090995961
C        -4.27368014358873    1.39473746929087    0.51583230014818
C        -5.26771837612390    2.30065968030889    0.18518545520756
C        -5.35768206454727    3.50568823474139    0.86329581593029
C        -4.47059702965225    3.80481283465039    1.88157563867914
H        -4.53878728146851    4.75641850259342    2.38985657978982
H        -6.12556845730697    4.21796490693679    0.59570101433447
H        -5.96616746612587    2.07411551333380   -0.60744835603124
H        -4.19023682530009    0.46102259702480   -0.02193279411753
H        -2.57961962845093    1.01157749427089    1.77907400888725
C        -2.28190683145092    4.91108909081284    3.82302745851676
C        -2.06313388140275    5.72926581876673    2.71752946213063
C        -1.98927419132115    7.10023263842366    2.86554634105554
C        -2.11020895096928    7.66984797844021    4.12276732897107
C        -2.28302445878483    6.85947015569032    5.23198056826579
C        -2.35965842680994    5.48683512241886    5.08650011842645
H        -2.48104000637606    4.85615498262003    5.95652049701881
H        -2.35747926840687    7.29946350628173    6.21643125196661
H        -2.05753416996513    8.74262662500671    4.23856880385436
H        -1.83333474704266    7.72850842783485    2.00021952465857
H        -1.95572362112701    5.27790032283866    1.73980319813757
H        -4.93681093651637    3.95118869114645    4.52179745269646
H        -6.35659762969608    3.25742335375346    6.40248946850280
H        -5.57776120736034    1.50229487903164    7.95961926372986
H        -3.37677130416104    0.43617843276953    7.59663179929287
C        -2.10153141140591   -0.75766770289229    4.81865469053762
H        -2.91187722860784   -1.14429444491424    5.43072880677506
H        -2.46433117172545   -0.48844974611740    3.83030800460958
H        -1.30803784121293   -1.49437115759824    4.74592202420463

