41
CSD_code = TAHPIC | q = 0 | S = 0 | Stoichiometry = C10H24Cl3N2OV | MND = 6
V        14.34360946026864    9.13957412044882    2.21798722353032
Cl       13.15720638558966   10.29686453120065    3.45818886214094
Cl       15.47018341517565    7.66464968139271    1.32832663814448
Cl       15.93483851137768   10.76522370693178    1.97489685565506
O        15.51918214904134    8.52804851279083    4.26494573660932
N        12.61999938535966    7.50330050822268    2.37832428450899
N        13.31902832542538    9.63553442774834    0.42325913250545
C        11.65224383659945    8.11506512783889    1.46957777124451
H        10.84713886881137    7.40415251646767    1.21711479088187
H        11.20524542808608    8.97054956971875    1.98167301984327
C        12.31840342479811    8.58928117171874    0.17744085736140
H        11.54784650828680    8.95588151951358   -0.51653667340591
H        12.82632991310754    7.74338094211964   -0.29222090198265
C        12.67500058780361   10.94619712405078    0.52243090186675
H        11.90092499009380   10.94024778001948    1.28704540419474
H        12.22622152098431   11.22857645600502   -0.43925907957334
H        13.42425852369989   11.68836860951053    0.80095292726542
C        14.24514427506001    9.70933215040172   -0.70881993365937
H        14.74901733997883    8.75353107352061   -0.84649887407805
H        15.00174114374793   10.46569361820582   -0.49738385159926
H        13.71193434086415    9.97395068631749   -1.63097449171191
C        12.06880128467055    7.40371390619923    3.72475359480934
H        11.76346133525646    8.38537833639421    4.07951383014291
H        12.84166420262130    7.02262874562857    4.39155490334463
H        11.20226875709043    6.72743787565465    3.75176329117176
C        12.94382902883497    6.14883408693380    1.94769118320189
H        13.36942118582844    6.14463047069379    0.94806801550415
H        12.04789024462674    5.51026308499347    1.95813737133291
H        13.68607158668515    5.72865899316007    2.62380714378939
C        16.84898983468342    8.06095109036416    4.10180763718086
H        17.42775204877311    8.77837099359804    3.50187245062718
H        16.80921601358285    7.09941682648447    3.58704349214268
C        17.40130472698091    7.96793054366913    5.52549750104334
H        18.48513676446746    8.05285891212857    5.54549181995905
H        17.11679475019341    7.01529981658109    5.97354594318093
C        16.69811616432022    9.13280179310969    6.23652577613418
H        16.26797157290565    8.81745530511598    7.18587220636977
H        17.38202240232502    9.95733425088256    6.42852831805124
C        15.60459291680066    9.56039081219848    5.24015055237577
H        14.61860178295816    9.65837034839191    5.69981586571277
H        15.87459506223877   10.50666997367638    4.75158850418048

