75
CSD_code = TAHPUO | q = 0 | S = 0 | Stoichiometry = C33H34Cl2N2NiOP2 | MND = 4
Ni        3.58577435770377    6.87997384518993    1.45010180889964
Cl        5.36878541352250    7.48255637303045    0.50924396237153
Cl        3.12179307982457    5.23005747614722    0.23632722781246
P         4.18767873014193    8.44713560606480    2.74528310535898
P         1.72460561787328    6.32700945383774    2.33936425583926
O        -0.15834974152161    9.30552248163501    2.64893290995219
N         1.41855943483928   10.51644732316661    5.66683149352203
N         1.10625915116763   11.59601627242308    4.95599069427097
C         3.92195487321864   10.44724339454347    0.83328980620446
H         3.64183147138461    9.63593261075055    0.17298506433978
C         3.93541249836944   11.75216267114431    0.37597935180753
H         3.65117972550490   11.96875700116660   -0.64293685186753
C         4.31469386375294   12.77863247257577    1.22465522942287
H         4.32489155758337   13.79859239110748    0.87008924975669
C         4.68772125356897   12.49701361435085    2.52914038425761
H         4.99048218261493   13.29533818340222    3.19082043843845
C         4.67456028522452   11.19383525917196    2.98991250660337
H         4.97817493247041   10.98362122099796    4.00673588003719
C         4.28855876271971   10.15965084180033    2.14225452313155
C         6.91925491367941    8.89033541055476    3.32164213316938
H         6.85494743237189    9.77496209473625    2.70541152799965
C         8.12550974813254    8.52544705961414    3.89336358508192
H         8.99823486537060    9.14250075361463    3.73769121023383
C         8.22148816766019    7.36847961606903    4.64820342121582
H         9.16682124536678    7.08595937854486    5.08732328907727
C         7.11005240053676    6.55848535527056    4.81905129728282
H         7.18957750118953    5.63955895978015    5.38157742395494
C         5.90316595442733    6.92108882178106    4.25332716351823
H         5.04007658466482    6.27197269075508    4.34982074745337
C         5.79400108442705    8.10124018996172    3.52237677174451
C         2.23678780479041    4.13077731189041    3.95061464439251
H         2.84852254093974    4.81603055077799    4.52394754099881
C         2.17849828216792    2.79877149947701    4.31483125661544
H         2.72661157841132    2.45125186397153    5.17869904718189
C         1.42868375710484    1.90943490528496    3.56315083866990
H         1.38486089979152    0.86793866817605    3.84521318759256
C         0.75474710990173    2.35397355701714    2.43770342249626
H         0.18948872189732    1.65720557802428    1.83663275950863
C         0.81409002320914    3.68521738285420    2.06802333549980
H         0.31640946241898    4.02342434336524    1.17139743403708
C         1.53662349318570    4.58915918474540    2.83868096383633
C         0.57562734421142    7.29725687897260    0.01509098698112
H         1.59898015654613    7.54964400482457   -0.25244814982737
C        -0.46636145085757    7.58568081557592   -0.84699275080261
H        -0.26885975718230    8.07839651869319   -1.78769515195599
C        -1.76162205892678    7.23785689863613   -0.50257233661592
H        -2.57747595103559    7.45936538632080   -1.17485727323283
C        -2.01232214374639    6.60091017077168    0.70261282131029
H        -3.02305267277494    6.32614476948687    0.96771050183633
C        -0.97313399525724    6.31223081745512    1.56677411771388
H        -1.17163962115458    5.80667913596091    2.50215640544224
C         0.32920880055771    6.65879962770354    1.22395332155977
C         1.15720192896998    7.16971047251987    3.90940818387695
H         0.06520545646019    7.16503612450527    3.89926882090454
H         1.49623860862615    6.57568946073374    4.76215182353938
C         3.15631347038404    8.66988686094186    4.28454162125810
H         3.44533139853699    7.88840713893708    4.99434911093493
H         3.43708209837940    9.63135669931578    4.72115978651245
C         1.63995567069996    8.61538364667865    4.07193169856725
C         0.92030243463122    9.21972845592292    5.30985432403205
H        -0.13974826116143    9.31175757166021    5.06084685472678
H         1.04113316029467    8.55909038400776    6.17187218381666
C         1.77959204168163   12.59659672459888    5.48864668984787
H         1.68718430524556   13.58548448744711    5.08604321220893
C         2.55280752839541   12.15931829791142    6.57178202379295
H         3.19415278805473   12.74301097320231    7.19921485990328
C         2.29569483870431   10.81080235657268    6.65046151687841
H         2.65591340420291   10.06346821668492    7.32913030129741
C         1.22898169288762    9.42872040283664    2.84226239459121
H         1.50028711816358   10.48451106414388    2.98565065718665
H         1.76840762789895    9.04522358305740    1.95473990144898
C        -0.65158998228220   10.20411269334845    1.68955010043409
H        -0.49297829911417   11.24027247230830    2.00988936326925
H        -1.71687918112285   10.00411920043191    1.59574671063237
H        -0.16705952052275   10.05083401906678    0.71828132621985

