75
CSD_code = TAHQEZ | q = 0 | S = 0 | Stoichiometry = C33H34Br2N2NiOP2 | MND = 4
Br        2.24377705370119    7.18801865710782    2.71346576838443
Br       -0.74633623962505    6.27433217653276    3.85910885351507
Ni        1.19345436044901    5.27990197890306    3.30320969109247
P         0.10205347836784    3.40507117126968    3.45553513866849
P         3.14439459720446    4.39696162925409    3.17347630401112
O         1.16313360900971    1.35798795292389    0.69777562823861
N         4.15883186258787    0.10840821246970    2.32477853765023
N         4.47444786452788    0.24533426563440    1.03959352783135
C         0.93073830988621    1.73458853437859    3.46233183456460
H         1.03432911361538    1.40819045527485    4.50130005039312
H         0.25656963968475    1.04315941834622    2.95133319428397
C         3.29330765875541    2.57998790351750    3.53364684275160
H         4.31875761250263    2.29572182055081    3.28367827147062
H         3.16151774585407    2.42726346849375    4.61004300153963
C         2.80187328226601    0.22562295110120    2.77507797195816
H         2.73937363976513   -0.19516995461492    3.78186108541096
H         2.15786566343837   -0.34196768286940    2.09849911029555
C         2.29880240357999    1.69477011998455    2.77731874596582
C         2.14948332907050    2.14141192396784    1.32046922267198
H         1.85369158010259    3.20730849431917    1.28647982024912
H         3.11050198021134    2.03450267414189    0.79699554583382
C        -1.78405150873979    2.27459421396627    1.70097959044022
H        -1.93114021610931    1.50828199536651    2.44997233551309
C        -2.49679730838780    2.23176971066013    0.51825325885758
H        -3.19456136125996    1.42599383171675    0.34271604207301
C        -2.32301109985580    3.21878098041355   -0.43960834125413
H        -2.88477160455579    3.18000523978703   -1.36099924977636
C        -1.43506481026964    4.25675873456402   -0.21434061201627
H        -1.30160783292680    5.03142944672343   -0.95458438746113
C        -0.72132352687656    4.30247416613310    0.96873403798064
H        -0.03248705602583    5.13036669969884    1.15165083238182
C        -0.89037080949843    3.31479188942950    1.93238116022227
C        -2.44248841448829    3.39369638675890    4.64327697900739
H        -2.81828737642081    3.71381765385626    3.68278690316126
C        -3.30708314981336    3.25509212815868    5.71293028374395
H        -4.36022052131101    3.44684877213328    5.57424354763328
C        -2.82545924158880    2.89129654607064    6.95941282440679
H        -3.50282695284552    2.79089414022340    7.79407793360824
C        -1.46919906292298    2.67903834753784    7.14063671088314
H        -1.08517201424006    2.42075973429671    8.11683347219656
C        -0.60161050654883    2.81273870954039    6.07317806716239
H         0.46090970686486    2.67324698094734    6.23195750118461
C        -1.08415763547606    3.14626659550182    4.81103283769572
C         5.13577291614070    5.93114385402470    4.45910491228167
H         5.50603642719212    6.17864030087950    3.47474638771598
C         5.71843369816574    6.48817785475882    5.58318764125685
H         6.56217997540714    7.15236652732599    5.47140923526276
C         5.21293571386952    6.21418836178032    6.84321332364510
H         5.66686460400775    6.65834031458775    7.71631065323367
C         4.10587973990859    5.39283287707987    6.98322509656689
H         3.68848331511486    5.20411251267716    7.96147751497659
C         3.52278736530325    4.83027367003045    5.86451499844041
H         2.63307833113985    4.21804742051594    5.97172043582745
C         4.05130308067838    5.07291666209518    4.59838729458075
C         5.58676184497069    4.06832699901537    1.87473063286003
H         5.95062117118419    3.69483223585000    2.82321811006040
C         6.43143810822637    4.09552761384430    0.78197333996342
H         7.44392996959807    3.73249762184894    0.88020854411675
C         5.98176516113490    4.58621191257603   -0.43350482856472
H         6.64472618676071    4.60330488387817   -1.28548576647413
C         4.68667823352637    5.06004668127695   -0.55207357689591
H         4.33558519694884    5.45171563665690   -1.49463723265413
C         3.83764024694214    5.03459360781833    0.53931248993126
H         2.83078021289223    5.41850753267536    0.44602192333886
C         4.28060250309550    4.53599038271539    1.75749195762221
C         5.78910321062351    0.17361754385820    0.97235818452026
H         6.28677049502506    0.25372755293475    0.02672053802885
C         6.34608586863303   -0.01106563104785    2.24434687614713
H         7.38054815201383   -0.11009654497778    2.50036036256302
C         5.26199927436124   -0.04282383345133    3.08930720185611
H         5.19991285811056   -0.17341381159726    4.15146874983705
C         1.12212721766497    1.54262425782446   -0.69398684031400
H         0.90322614071355    2.58641283847075   -0.94816295134094
H         0.32264733066606    0.90621366554060   -1.06712292734330
H         2.07440920833143    1.25345942436446   -1.15254215548556

