60
CSD_code = TAHRAW | q = 0 | S = 0 | Stoichiometry = C24H27Cl2N4OPPd | MND = 4
Pd        0.21324296580235    1.22685286263240    4.84767003852980
Cl       -1.39125155991228    2.01835450949171    6.21397299891321
Cl       -1.25714046050210    1.00888132054135    3.18348719294394
P         1.73979492828377    0.21350976665950    3.52822886638504
O         4.26184986835334   -2.87789665622877    4.32433454499460
N         2.36425927861656    0.78631883346453    6.95030100334166
N         1.56484198830852    1.65039490168084    6.32846604688026
N         5.13113856016919   -1.59989943670058    7.32091132869499
N         4.65822868412549   -1.26996857568995    8.52277098494169
C         3.40235062276000   -0.14529645708102    4.28801366431488
H         4.02407529298046   -0.63731913312280    3.53465795038567
H         3.83262732067068    0.83944601315491    4.50261225841570
C         2.37093453803100   -0.60569732643022    6.60381404920871
H         1.37334551428081   -0.84594792252189    6.19675335900995
H         2.53548541368535   -1.18062074716344    7.51967594783865
C         4.87056573272643   -0.78075210969536    6.17448467594009
H         5.60459008881628   -1.03013468465096    5.40580731002707
H         4.99046146573976    0.26637298337468    6.46619788404675
C         3.45466403001218   -0.98849893202733    5.57241853480658
C         3.27694895378762   -2.48002598872117    5.24885361318949
H         3.36818314479561   -3.07372774829029    6.17270564386857
H         2.27537508641753   -2.65950330149082    4.83609327773895
C         4.14503090500554   -4.22954634599926    3.95656075407676
H         4.26378084848816   -4.88698361196853    4.82642422835435
H         4.93960202469776   -4.42560887037423    3.23992459492246
H         3.17247349091726   -4.42886652009544    3.49208195570575
C         3.07581577574227    1.40588384303672    7.91207232374795
H         3.75035749148749    0.85471286374030    8.53847731882976
C         2.71806374578212    2.73512331905719    7.88833583857072
H         3.08213952143427    3.51979197023780    8.51798687669720
C         1.75960448215045    2.83827234477179    6.87509987288341
H         1.20306683525669    3.69653605764187    6.54092019961876
C         5.81052331649089   -2.76399071582940    7.36012446848905
H         6.25917522521155   -3.17916179552941    6.48063402449951
C         5.77812895798866   -3.20485391847157    8.66214136020971
H         6.21936638928808   -4.09183580390076    9.06657095086010
C         5.04295533231581   -2.22744715168245    9.34479213572969
H         4.78467772815270   -2.18413785612149   10.38389298632284
C         2.20297487582973    0.97113267458963    1.94415602987411
C         1.25888635654400    0.90165078926833    0.91895999342178
H         0.32531033416040    0.38595736449141    1.09676044956668
C         1.50632480897987    1.51049658306733   -0.29615087308547
H         0.77004129080943    1.45289937003955   -1.08359186194679
C         2.69154771549979    2.19925551768175   -0.50104843652757
H         2.88506349457261    2.67578148860503   -1.45054903750218
C         3.62343143581739    2.28629236276163    0.51912971308611
H         4.54290379314326    2.83267059868713    0.36659669159198
C         3.38152348246767    1.68236347140653    1.74093510831093
H         4.11532056639302    1.77444762075388    2.52827807128431
C         1.15989147153015   -1.43102751179002    3.00394534514648
C         0.05979715637221   -1.98210995574630    3.65617088621445
H        -0.45178169372263   -1.40139668763497    4.42825859129504
C        -0.39676410344604   -3.23873270882885    3.30094228759978
H        -1.25566294296509   -3.66180442107589    3.79945587311932
C         0.24499397308670   -3.94900671779072    2.29841350180515
H        -0.11358055351537   -4.92829982839551    2.01760469288283
C         1.34096303865370   -3.40265088884953    1.64834216893463
H         1.83453769907656   -3.95651493802158    0.86293308012702
C         1.80030365616336   -2.14526768006545    1.99713007069149
H         2.65014061618470   -1.71346648282969    1.48745659017672

