81
CSD_code = TAHRUQ | q = 1 | S = 0 | Stoichiometry = C36H39N2NiOP2(1+) | MND = 5
Ni        7.94736427466182   11.45257484308935   11.12991590108089
P         8.01867987157545   10.62623619265655   13.13283848908826
P         7.28142017394794    9.69991732956615   10.06116708656445
O         4.99749376334201    8.72067058177281   13.81259789170604
N         7.88723735384319    5.83621496738643   12.63554212034945
N         9.12223780769044    6.33940692895252   12.67830176253520
C         7.80202066202158    8.81498117928875   13.37183222394432
H         8.77577493361550    8.32114039291035   13.29947303433066
H         7.42552391054849    8.69334572106465   14.39155729395253
C         7.35645308535052    8.09786693602218   10.97261661135337
H         6.79365472298521    7.36855996165875   10.38123255954854
H         8.40452612200679    7.78415496886960   10.98161355548015
C         6.71094886822763    6.62979074530984   12.88763562598305
H         6.47962949852700    6.63320809367656   13.95894110429021
H         5.87507780744195    6.15275587389243   12.36777105685879
C         6.84124792897611    8.09615233531983   12.41638906208320
C         5.45681879979279    8.74805791785426   12.48928078316497
H         5.54186963745861    9.79409635811317   12.13353082028820
H         4.75113794309294    8.22540715406195   11.82342487835139
C         9.64154017162851   11.90794804150289   15.03212439357689
H         8.77196336146220   12.50043527064658   15.27942403298341
C        10.84156972087048   12.13730437065245   15.68159758511421
H        10.90226227973298   12.90498973033135   16.43796596196619
C        11.96207671989914   11.38892844800998   15.36072485979514
H        12.89616250060892   11.57039819318952   15.86934159802477
C        11.88541224083428   10.41397109387563   14.37860960737909
H        12.76103709549092    9.83917057932276   14.11793635792447
C        10.68867660886202   10.17856389137160   13.72824618107331
H        10.63662190969687    9.42621485968993   12.95278235293699
C         9.55210004660022   10.90882265344317   14.06832665530858
C         5.84535176070907   12.26797134953880   13.50858288946120
H         5.99964177989790   12.48389887066006   12.45045914510069
C         4.81866363199003   12.86928356138270   14.21255447405907
H         4.15679529664583   13.56725779419966   13.72189748748963
C         4.64444072501194   12.57046897088318   15.55449103866023
H         3.84613827680385   13.03805646533508   16.10990505956828
C         5.49337122628354   11.67380210991404   16.18556824159321
H         5.35355463536620   11.44629109520259   17.23133604654715
C         6.52098444134071   11.07136683656635   15.48327135941246
H         7.18776534063503   10.38125697119890   15.97998295979431
C         6.70095103108003   11.36989768290504   14.13739373802362
C         4.87558562105561   10.94115352298478    9.57486850825538
H         5.34635688144904   11.76293551992059   10.10780231957054
C         3.58554024410283   11.05688604589254    9.09190592454661
H         3.02972808703559   11.97023805133215    9.23965217634584
C         3.00968775515891    9.99467467878105    8.41368275940026
H         2.00398343344379   10.08011541849456    8.03243616828872
C         3.72426568476015    8.82237815513699    8.21993443558465
H         3.27444608966686    7.99917310752761    7.68591494831539
C         5.01417201481776    8.70296583846073    8.70503565648437
H         5.56980452892006    7.79024728444527    8.54096984965813
C         5.59669050985520    9.76660327120998    9.38728974007753
C         9.71280633029772    9.09414562143149    8.95525280058436
H        10.04507373735968    9.15956710823779    9.98552686720356
C        10.61620913551574    8.82774282343578    7.94529947884603
H        11.65741820840658    8.66581561494142    8.17949747692739
C        10.18314967921842    8.77677468422887    6.62867473155920
H        10.88720515222845    8.56846330260096    5.83811663732982
C         8.85173603960584    9.00763101303257    6.32644704475604
H         8.51883286354825    8.98378845276696    5.30001482659579
C         7.94159062345012    9.27624794226660    7.33523443389577
H         6.90727507054695    9.47177225308705    7.09233549273324
C         8.36572519560296    9.29576327836855    8.65752656257988
C         9.94003038334077    5.32985974631146   12.44352192576864
H        10.99957540307783    5.48818367360721   12.42117048455630
C         9.22576535828292    4.14323499018696   12.24748355687262
H         9.61740762660986    3.16982610294186   12.04101037003728
C         7.90802496440354    4.51183424334521   12.37987603587609
H         7.00758539449685    3.93566649347589   12.31380631089929
C         3.69178385057055    9.22540824302698   13.95602075253472
H         3.63263286676172   10.26719425075123   13.62201988971173
H         3.45331694602484    9.16891268474553   15.01511212350011
H         2.97305112147500    8.62742680853596   13.38456434817678
C         8.85166004216727   13.14375179176400   11.69045985919742
H         9.86847726987574   12.75994065360935   11.57484902028261
H         8.69784991373900   13.74354641980037   12.57955931903561
C         8.08454608042691   13.38413227487810   10.54486595581497
H         7.24662656179328   14.07583831053729   10.58170641993790
C         8.24369433033467   12.52492127268867    9.45416839691086
H         9.23447308405340   12.11433306134899    9.24560630627184
H         7.61041795002851   12.63146866859022    8.58139619835616

