46
CSD_code = TAHRIF | q = 1 | S = 0 | Stoichiometry = C18H23ClNORuS(1+) | MND = 9
Ru        0.07795981005876    8.67525414302082    8.12231145967892
Cl       -0.66781124593883    9.60969420191764   10.13504514537016
S         0.73525784588259    6.94149563087580    9.62070485753523
N        -1.83560258944472    7.64335625021277    8.07841229155934
O        -4.30919111766206    7.40729205290495    6.56780616393353
C         2.98636857036371    5.40918912390370    9.52810756188620
H         3.11417921937787    5.74166893607500   10.54597598871332
C         3.90435331475601    4.55727297992420    8.93671410298953
H         4.76000915835599    4.22035568368029    9.50013565998020
C         3.72203482348863    4.13834045953358    7.62876876989975
H         4.43705276450882    3.47386335896553    7.17002799988340
C         2.62341573562011    4.57507321380202    6.90394965544429
H         2.48404225999018    4.25332882402120    5.88337114296710
C         1.70400566976450    5.42975285171462    7.48574229827628
H         0.85693632274434    5.78969553930863    6.91732912181767
C         1.88646579215124    5.83728932436297    8.79900139762119
C        -0.80375696975713    5.92911202401461    9.57668590475427
H        -0.67106950275692    5.15335968853088    8.82389779396242
H        -0.90413963901623    5.46272510636175   10.55674862620907
C        -1.99517815175587    6.83612256256947    9.31194501931709
H        -2.89917322066607    6.22132877817898    9.26497418851333
H        -2.08645508290826    7.54013213522607   10.14614520873423
C        -1.97434466798148    6.81851326691271    6.86160600975445
H        -1.31269202091913    5.95357151936600    6.91504925492858
H        -1.69396584025626    7.43454077250775    6.00290457904990
C        -3.41648238259471    6.32997712653460    6.62436840834390
H        -3.47320994142604    5.83012888541162    5.65575289771774
H        -3.72020172102247    5.61437512623266    7.40232475734984
C        -4.27684587706801    8.15326302831732    7.76061705965888
H        -4.62240790131890    7.54524623543008    8.60752161165147
H        -4.97107594372914    8.98267708571729    7.62139873709608
C        -2.86707914543671    8.70353054099275    8.01419787603577
H        -2.61322682521326    9.36246804711395    7.17729604689916
H        -2.84160013909333    9.27898070757800    8.94167659297332
C         2.13137267938996    9.66635517178080    7.80836102753031
H         2.99445470655177    9.69660077050326    8.46332909496350
C         2.01426459975172    8.63745435046453    6.84128587877717
H         2.79940431898112    7.89434906408899    6.75538258738299
C         0.96425775908498    8.65303778273295    5.91139508119133
H         0.93976363724575    7.93089645100710    5.10470921596888
C        -0.00603280586000    9.68022148571273    5.97482432729325
H        -0.77441905454517    9.73956514230235    5.20977841178597
C         0.09441250369273   10.69610445937320    6.93950569438566
H        -0.60249495601468   11.52599876034009    6.93725964944872
C         1.17180942745721   10.68370763269997    7.85663311849218
H         1.28083582316770   11.49823371777378    8.56292172227474

