69
CSD_code = TAHSAX | q = 1 | S = 0 | Stoichiometry = C28H34N4OPPd(1+) | MND = 5
Pd        3.31603507090212    6.54262838152757    2.84608517475999
P         3.71427234974266    7.58059516708170    4.83752157175038
O         6.96542261039943    9.20111552736102    6.16688082602712
N         4.80546914888506    9.02233225832770    1.80444578144926
N         3.67165648710022    8.32222864867503    1.74652531979430
N         7.46949698787944   11.08340996570659    3.22551397645027
N         7.60914482653233   10.92607278762885    1.90593721420399
C         4.54924090215335    9.22594139583716    4.74941145536811
H         3.83692548948272    9.88975243404587    4.24629302257241
H         4.69425312856927    9.57616744662901    5.77609103042124
C         5.89028114126826    8.60740006941698    2.64923432805078
H         6.82821677645540    8.82834551107207    2.13135384061799
H         5.79703396351403    7.51456214181336    2.79357978684708
C         6.21516330409692   10.82378613121554    3.86557058297038
H         5.42226718268627   11.30281376579273    3.28349586698090
H         6.24406729777264   11.26535591290872    4.86358620612589
C         5.90186396805940    9.31117090603997    4.02348968354702
C         7.01704897196775    8.67390287723978    4.86867175712469
H         6.89811064518998    7.58036478585346    4.89716638270254
H         7.99434864501330    8.88727020725148    4.40717826585824
C         8.00599836892265    8.72868358473112    7.00368899950740
H         8.97922688221030    9.01531813334334    6.57835922402005
H         7.96551717414713    7.63016965400008    7.05346654154628
C         7.82730022260576    9.33248477389205    8.38525170976343
H         7.86760291627704   10.41651685407600    8.32867709884805
H         8.61676415462401    8.98312740537436    9.04324680126035
H         6.86498467884368    9.04158807240984    8.79645100126555
C         8.62535066232385   11.48030939778640    3.79889244563377
H         8.69589839608616   11.66081056822657    4.85222453518311
C         9.55645463771705   11.58937887655484    2.79421133813056
H        10.58018315925259   11.88726619460461    2.87740749463576
C         8.86309396631881   11.23098953314435    1.63096893612188
H         9.22167840494209   11.18528023129961    0.62247087368646
C         4.74648270809629   10.09322815807608    0.99519046201178
H         5.59200079124113   10.74593005978237    0.88679344198068
C         3.50213856574123   10.08747546031910    0.40078017695833
H         3.11330051896355   10.79184896770035   -0.30387312064972
C         2.86302021256824    8.95318707887367    0.90383725814765
H         1.87722850942531    8.57886400736129    0.68785006035098
C         5.46596668099476    5.51795337282337    5.36650986993944
H         5.35455883677984    5.31608304265882    4.29690630917776
C         6.29084435866971    4.73462716914214    6.15288791800553
H         6.83171639987893    3.90753818795363    5.71848961483673
C         6.41975274425219    5.01622247949286    7.50467683809639
H         7.06045337683291    4.40460140895559    8.12099680250735
C         5.72811965764824    6.07778189471360    8.06790603168800
H         5.83324708594834    6.28928185747435    9.12105945447278
C         4.90179377130572    6.86466600578227    7.28537067321267
H         4.35494850489224    7.68940292839003    7.71930138166151
C         4.76948146890708    6.58411597537361    5.93092025139163
C         1.61778328782343    6.77493444410606    6.38549593571237
H         2.03754557785715    5.79591316242257    6.18829578983545
C         0.47770411075850    6.90494036629412    7.15344651610235
H        -0.00362024114250    6.02777321819929    7.55806135969188
C        -0.04804929840274    8.16414441521789    7.40101462229162
H        -0.94008196412665    8.26894400419440    7.99866187161256
C         0.57097276875910    9.28649500889361    6.87814465246584
H         0.16092038040939   10.26672570363253    7.06790679662262
C         1.71627358406050    9.16296708411023    6.10877097177214
H         2.18012501553922   10.05122970589708    5.70809169537195
C         2.25284679326062    7.90374944938319    5.86547145431683
C         2.63260861086380    5.37489135000578    1.17834469209345
C         3.10583647474366    4.52391941945594    2.17163882292483
C         2.59295354533688    4.68339626013716    3.48292516866580
H         1.58964947960699    5.71069781239606    1.21342409310364
H         3.08224789440784    5.35132891042374    0.19119042319068
H         1.52499913514024    4.90795863750264    3.59182636079991
H         3.99312242951829    3.91546472006536    1.99973588122051
H         3.00753570146585    4.06857867182217    4.27750039514895

