73
CSD_code = TAHWOP | q = 1 | S = 0 | Stoichiometry = C36H32ClN2ORu(1+) | MND = 9
Ru       -3.22887985715340    6.11175160102580    9.06982962822346
Cl       -2.82513050907014    4.37260429505185    7.56998174138881
N        -2.96426597768239    4.67469547955867   10.41410135228799
N        -1.30681038454463    6.22710585198982    9.37891392794551
O         1.96482771220609    6.46766063179581   10.97021324817666
H         2.60099222462997    6.11456654243075   11.60475008878461
C        -3.91770485253881    3.86059144034087   10.85921922024881
H        -4.92857331510290    4.06995587702595   10.53383873170953
C        -3.65069750245124    2.78209365465282   11.67981889481729
H        -4.45741610138462    2.15077725833132   12.01355405992237
C        -2.33380506191946    2.51805723580375   12.05071711561440
H        -2.10235672654682    1.67446798290928   12.68084834441764
C        -1.33461406008373    3.34372619718976   11.58103364599636
H        -0.29763994464377    3.16872149318361   11.81699290977038
C        -1.67388524042800    4.42012080736083   10.75603906153095
C        -0.76043131797958    5.33952752647638   10.15384928756020
H         0.31270502817522    5.27393576368026   10.28284205043402
C        -0.51873632644713    7.15272416305007    8.68341534582112
C        -0.62402829341614    7.12156426979351    7.27180187221192
H        -1.28422127870349    6.38853995943186    6.82730580288574
C         0.13289934781072    7.95429805246563    6.50560295427535
H         0.06747466819710    7.91567243009457    5.42872183519045
C         1.02692505358715    8.87103312471192    7.10172054182911
C         1.82739876038240    9.73370120353470    6.32712963647551
H         1.75421357928008    9.67944143707894    5.25115250239045
C         2.68359234386834   10.61710699251268    6.92465179903008
H         3.29713989494342   11.27213135178025    6.32559111808885
C         2.77137043279039   10.67704947083648    8.32352745154745
H         3.45112668255763   11.37874385588501    8.78212518629719
C         2.00700143371046    9.85463328610443    9.10361096077436
H         2.08046596702892    9.90209469357615   10.17945240125391
C         1.11787752010949    8.92660847124978    8.51841711098716
C         0.33024628596043    8.04957500549548    9.31088052115670
C         0.36114224423369    8.19501898495680   10.78702380879100
C         1.18141206313593    7.41008214923323   11.57186039208912
C         1.20324520896935    7.57304155827885   12.96965645000104
H         1.85589319479845    6.94202591357999   13.55752531029901
C         0.41971541869441    8.51281734039534   13.57240551729945
H         0.43489618459614    8.62868680689882   14.64528017910576
C        -0.39925062372358    9.36578425995714   12.80507405881216
C        -1.18349153489031   10.37613924017772   13.40042447688409
H        -1.17191855192612   10.47151642555850   14.47581117117658
C        -1.93016014218888   11.22741095559698   12.63457309438679
H        -2.52247774439648   12.00269117628062   13.09528512783063
C        -1.91110307514203   11.11166123607173   11.23604862909962
H        -2.47788914200512   11.81123091960982   10.63880632928993
C        -1.17424640693012   10.13097846353599   10.62898816034619
H        -1.13826296385850   10.06457144790499    9.55068647027680
C        -0.41125706886796    9.21971776243617   11.39288839647810
C        -4.69670670482003    7.47913083356382   10.17822992751944
C        -3.76432322759836    8.28077210113107    9.48448098918731
H        -3.20781558997256    9.03916898651335   10.02320746649579
C        -3.64245739148433    8.20598411727320    8.07526322250357
H        -2.98827758057061    8.90016097439294    7.55946570767199
C        -4.38533799470905    7.27534181312618    7.34067640738069
C        -5.33823515026576    6.47043247750327    8.04102656071687
H        -5.98169435715485    5.80979086474428    7.46923698148486
C        -5.51715804491465    6.60282104456124    9.41454684437838
H        -6.31930327871562    6.06420760725727    9.90832120243580
C        -4.91691574559709    7.64719698554535   11.66255861004990
H        -5.57596181068227    6.84149308324006   12.00581916766942
C        -5.61241420712951    8.98633838239850   11.92961062240520
H        -4.97873548558728    9.81567369248159   11.62483803931478
H        -5.82104159010545    9.08643158703816   12.99099563320037
H        -6.55251881387076    9.04806023970901   11.38643743808386
C        -3.60172301880262    7.55923737023012   12.44070423747736
H        -3.03909037984853    6.66888640084912   12.15454628985950
H        -3.80697829662462    7.50711662005341   13.50627095996677
H        -2.98071020133210    8.43195711626808   12.26210283021804
C        -4.27053496517923    7.15955414997061    5.85552188859125
H        -5.23681230465075    7.34715875569886    5.38824030421855
H        -3.96442111856273    6.14741947875733    5.58591463091443
H        -3.54223998742381    7.86271327078454    5.45999611710703

