33
CSD_code = TAHWAC | q = 0 | S = 0 | Stoichiometry = C14H14NO3Re | MND = 5
Re       -4.07198567731948    1.57607143335749    2.19025690002810
O        -4.67389748864343    1.17734348490071    3.69313202796630
O        -3.32415354339583    0.41025597166952    1.26882696525012
O        -3.91803090484900    3.17565130978143    1.76174990174807
N        -1.82557042942719    1.81470162663264    3.50928273121438
C        -6.01860281094292    1.33104602030121    1.21481463108932
C        -0.67345590669703    2.15879742681360    2.94874387968336
C         0.50184671343496    2.25079133955236    3.66690134839735
C         0.50534702013807    1.97047451558157    5.03951472265330
C        -0.72387117001205    1.61623679548960    5.60891392284864
C        -1.84703662940805    1.55257255757052    4.80996861373655
C         1.74680753725169    2.06254096225419    5.77940885482127
C         1.92976422026940    1.68877496063382    7.05530555428160
C         3.16823656129799    1.76362783541517    7.80559108339250
C         4.32314025809692    2.38464549335172    7.32109078252922
C         5.47525493900985    2.42212765985062    8.08080849830300
C         5.50512254604948    1.84213828016248    9.33935052466265
C         4.36835846106842    1.22606168016951    9.83688263437497
C         3.21380473855046    1.19017117092391    9.08049950422043
H        -6.73227796842550    2.03375446309704    1.63944973713489
H        -6.37968200001532    0.31611651745454    1.36757069308739
H        -5.91899203487915    1.52018212896312    0.14798559793949
H        -0.70562600547855    2.36626318351506    1.88811727769213
H         1.41661686628373    2.53398406334801    3.16870687575692
H        -0.80877636887506    1.39968472264636    6.66133174048320
H        -2.81634933154792    1.28247109719967    5.21105682468903
H         2.57858970746838    2.45371497061819    5.20977033836407
H         1.09951683323535    1.26757284321979    7.60771240346517
H         4.31938197532801    2.84951407714172    6.34749416521885
H         6.35788027395742    2.90793148852806    7.69117300396333
H         6.40882153893778    1.87294961297271    9.92932695205094
H         4.38347508967297    0.77429806070671   10.81776879873578
H         2.33054298982890    0.70743224603374    9.47459251018019

