43
CSD_code = TAHWOQ | q = 0 | S = 0 | Stoichiometry = C20H18NO3Re | MND = 5
Re        6.86704465816885   14.71421006823767   -0.78864828341963
O         7.05333531638425   15.81068417295340    0.44781157832247
O         5.41911251356193   14.64647337525307   -1.60367955535109
O         7.98003544972962   13.48845857550440   -0.98111539104927
N         5.83379928092619   13.08260341953970    0.97207457527778
C         7.83405274106959   15.99326053678512   -2.28255336735203
C         6.42640330806081   11.91025203474146    1.16112467552603
C         5.97978822417330   10.98070366043568    2.07764410521562
C         4.85073757382946   11.26820401326825    2.85494670272260
C         4.24464689811440   12.51324076015714    2.64042142860373
C         4.76304935459417   13.37800641439046    1.69807869687462
C         4.29865931218750   10.37272067110357    3.84869504336731
C         4.69239780150892    9.10866249959552    4.07362763307696
C         4.15251758014937    8.20251937220747    5.06474656792122
C         4.61360335022440    6.88148432835389    5.09136479687585
C         4.14091605932349    5.97699349625163    6.01702635656844
C         3.18268020535780    6.35484062239078    6.95688172184777
C         2.71890761062509    7.67047448449724    6.93485269128671
C         3.19385568564634    8.57646849501685    6.01214813599987
C         2.67745556425522    5.39546765679626    7.94694232873020
C         3.54363414856593    4.50615724468799    8.57979606613349
C         3.06788831716665    3.60719968231802    9.51582252251331
C         1.71924539958790    3.57599108618923    9.82923886103416
C         0.84870367038489    4.45254090382334    9.20326115333732
C         1.32314720902559    5.35788883569902    8.27275182546162
H         7.85157519098995   15.48464567371316   -3.24432200822401
H         8.85404491235679   16.21157917439406   -1.97267158958624
H         7.28005392367993   16.92494577719243   -2.37832898485358
H         7.29703724804868   11.72744698206446    0.54332951555843
H         6.51068264515221   10.04952090314460    2.18984013212304
H         3.37168064554506   12.79659115791088    3.20884039263812
H         4.31550211512654   14.34428485652637    1.51067566572706
H         3.49018139184641   10.79433878768656    4.43003737201333
H         5.48133354318411    8.68492282513189    3.46573568510276
H         5.35142660647118    6.56532478849655    4.36724191784590
H         4.50073882915094    4.95860680304082    6.00389314745333
H         1.99282786659230    7.98790701244342    7.66905781278870
H         2.82261443037446    9.58929904208934    6.03487022753188
H         4.59931121366468    4.53783952827008    8.35233654154007
H         3.75194064312873    2.92868016855983   10.00432123963609
H         1.34814685196459    2.87136089362684   10.55853155603934
H        -0.20486218609061    4.42953082412970    9.44080923605298
H         0.63674689620834    6.02746839137832    7.77504127107909

