36
CSD_code = TAHWEG | q = 0 | S = 0 | Stoichiometry = C15H16NO3Re | MND = 5
Re       -5.54692011410826    1.74433325454861    8.82441943619776
O        -5.00038240665208    3.05734419941148    9.68881246259207
O        -6.35379043565581    1.96241763220793    7.38506522986372
O        -5.00140898482171    0.22471761485488    9.22539095208399
N        -3.37144770651125    2.02445387292122    7.40765372928723
C        -7.39356622585806    1.56669860437239    9.99145141377710
H        -7.14987801791172    1.39430923473956   11.03783821630973
H        -7.98349770536761    0.73224163838870    9.61762802501668
H        -7.97260789543537    2.48384491120295    9.90375889230789
C        -3.33881072254686    1.63692680940153    6.13839739788774
H        -4.27212516682052    1.26150600219283    5.74035887349955
C        -2.20082402802467    1.70686321388602    5.36106761728221
H        -2.24053160774339    1.37775772329879    4.33551492513680
C        -1.01521794368475    2.20544525292489    5.91542462918557
C        -1.07764857764942    2.61824981894137    7.25328310530924
H        -0.20053022054042    3.01828622628394    7.73918014565259
C        -2.26238293727679    2.50966060344709    7.95195227156563
H        -2.34433899269617    2.82241525404227    8.98434398146358
C         0.23653144378783    2.31423437247072    5.19783629431652
H         1.04171308594105    2.75547242751918    5.76913658435393
C         0.45649030697997    1.91379356863327    3.93499591219402
H        -0.35464491409474    1.46749984395696    3.37431472707291
C         1.70265882879099    2.00322308046240    3.20409128472557
C         1.74678381582577    1.52294609809316    1.89166747546518
H         0.85317778784921    1.10209652635106    1.45238631070823
C         2.90863020317767    1.57525887976720    1.14902925324929
H         2.91324052958874    1.19565233720175    0.13721059060131
C         4.07306602049766    2.10929072921568    1.68663511639489
C         4.03454412211459    2.59295177123766    2.99220532408522
H         4.93157867550289    3.01358535257275    3.42434357893249
C         2.87733269950036    2.54327358486610    3.73845408612260
H         2.88658378673664    2.92727830538651    4.74672716717565
C         5.34312666007386    2.16539600793292    0.89786525245041
H         5.19629606323318    1.78168181665502   -0.10842565217570
H         6.11634207394952    1.57285626693052    1.38627319240213
H         5.70525849984942    3.19063716368444    0.83211219750140

