83
CSD_code = TAHWOR | q = 0 | S = 0 | Stoichiometry = C32H34B2FeN6O8 | MND = 6
Fe        1.74123866840522    3.83446048182986   25.24018542048663
N         2.56342211620698    4.91813304987049   23.93329173149716
N         0.27271641907160    4.19769494189129   24.11461980622596
N         3.16393554908793    4.32557378375390   26.37690374894607
N         0.80862753479606    4.79176300355048   26.57122960315997
N         2.86466883134857    2.44893171329908   24.62913212777062
N         0.77462972616775    2.32108730772505   25.81733966104792
O         3.90161521729827    5.07974291763762   23.85101909936801
O         4.46173390088269    4.16512927726878   26.03984934757208
O         4.10747575694335    2.66842878268745   24.14895477215153
O        -1.00014155473198    3.89080347802749   24.44529566694926
O        -0.53903044250471    4.80666322197851   26.65605812171258
O        -0.48363498807325    2.39561932321282   26.30143415285696
O        11.02986568165792    3.63820474824394   22.69815593973826
O        -7.76861082137528    3.82772517029461   26.75590938810795
B         4.65997237095405    3.99522645920016   24.56068678022097
B        -1.17864348836182    3.66640550432345   25.91286557516257
C         1.83306330712951    5.32693421911357   22.93411100831097
C         0.46771606615998    4.98272440376547   23.09248461570451
C        -0.60352336693712    5.47289784543795   22.17307438672119
H        -1.44421355311427    5.83478724653389   22.77077320715021
H        -0.97336688283132    4.62507168249387   21.58800492393958
C        -0.06228997398485    6.56093413460589   21.24781963814392
H        -0.78306748159790    6.75083627320001   20.45146400996172
H         0.07060592229810    7.48771599724525   21.80911442731868
C         1.28000735489552    6.13659933145677   20.65475261586129
H         1.59095977668316    6.84226180692579   19.88338697146387
H         1.17363202247050    5.15475781253808   20.18975490793511
C         2.34561391692193    6.07547579361815   21.74706979036463
H         3.26225533131759    5.59494946803506   21.39522500038315
H         2.62151665046696    7.08589883735389   22.06440442333924
C         2.88612192869631    5.05845993070870   27.41845528483025
C         1.49207989078699    5.25321655388903   27.58067570077683
C         0.90208160782486    5.92188392414304   28.77961534438438
H         0.04215476562265    5.34036261353464   29.12192303589976
H         0.51818898100732    6.90113770027711   28.47711927750821
C         1.95361116467004    6.08104309918304   29.87572757908306
H         1.56945905679773    6.74245972180886   30.65336934105864
H         2.16033317997236    5.11068312219592   30.33101439806671
C         3.24668135011856    6.64816442198390   29.29257463948341
H         3.94224048464315    6.90086881863913   30.09396266506721
H         3.02074733741110    7.56320696844434   28.74185554324755
C         3.89790749511316    5.63174659197926   28.35693688207302
H         4.33875167451903    4.81274769796229   28.93380838429331
H         4.70902437432004    6.07718103528903   27.77537160944392
C         2.52227449905698    1.22112946070351   24.90197663619422
C         1.24808307784395    1.14438857350995   25.51660637667081
C         0.55453456034238   -0.15230788467690   25.78118523521163
H        -0.49155759800449   -0.06233270076351   25.47689910823853
H         0.55467250484201   -0.33330238227907   26.86060194360654
C         1.26176769738376   -1.29404507398218   25.05398801666018
H         0.87143503829281   -2.24816577071865   25.41035021098878
H         1.06143372761694   -1.22738461294623   23.98302950899780
C         2.76936694211285   -1.21969550381680   25.28956492773077
H         3.25631559673828   -2.11431608499287   24.89935027529565
H         2.96324379612398   -1.17229106263594   26.36277175859822
C         3.35378719167229    0.01515196189735   24.60673242801336
H         4.38104719224818    0.20673957054203   24.92806349933930
H         3.38309898525307   -0.12938487931989   23.52219395740435
C         6.21602955860121    4.10956707521600   24.20418493445318
C         6.93303780053467    5.25315447841519   24.55435773101377
H         6.41740965865483    6.05079664830386   25.06643943839659
C         8.27437416711369    5.37718607813398   24.25567050376301
H         8.81759988388350    6.26998763151336   24.53398962189038
C         8.94147755464347    4.34845238895864   23.58982634350499
C         8.23217072281017    3.20023401360603   23.23225760207341
H         8.75917596431372    2.41128754892581   22.71567990831494
C         6.89160078975549    3.08895245608172   23.53719037200439
H         6.34127223853314    2.20332429889441   23.26033652610660
C        10.36331537060680    4.46730870371470   23.26742873505593
H        10.81604932756278    5.42489341252211   23.60015644076782
C        -2.72909862549157    3.58340838692613   26.30102469068564
C        -3.12020898248549    3.01786431770836   27.51421386457033
H        -2.35883497705290    2.61804094172224   28.16602429520222
C        -4.44900082198216    2.95756177766562   27.88116900315755
H        -4.73725391257197    2.51613842965120   28.82547984232068
C        -5.43320327757748    3.46835719283245   27.03434894435718
C        -5.05265092421843    4.03254401951387   25.81523388754411
H        -5.82396090207352    4.42210866897554   25.16690245842854
C        -3.72087891444818    4.08653432711759   25.46068218684341
H        -3.42706943798086    4.51761826848297   24.51652330327533
C        -6.84493973798028    3.41542782355654   27.41363407746286
H        -7.02204859382795    2.94386728388474   28.40305085106878

