35
CSD_code = TAHXEH | q = 0 | S = 0 | Stoichiometry = C14H16NO3Re | MND = 5
Re        1.17741783368530    2.91300016253458   11.18607802727138
O         0.76302411181425    4.35651489738565   10.46906293436211
O         2.28251711886342    2.91300015309972   12.42942371916243
N         3.21400282142687    2.91300010295827    9.54881203161807
C        -0.56355186641057    2.91299983432066   12.51713714434965
C         3.76903438085890    1.77645816590325    9.15177318921776
C         4.89756700897846    1.72915818416468    8.35717838900050
C         5.51284371543716    2.91300003307675    7.93197575953941
C         6.72493816076983    2.91300000807838    7.09636580626585
C         7.32201375574526    1.71825809130126    6.68728216330708
C         8.46512062989066    1.70593645498704    5.90461160899844
C         9.03048213844398    2.91299996477991    5.51764714531520
C         9.09520643289447    0.41425128524814    5.47979890754578
H        -1.47738723680391    2.91299972300449   11.92645970740844
H        -0.54232376073687    3.80040077550285   13.14641987730730
H         3.27911099924070    0.87204204530172    9.48690677243151
H         5.28331856962031    0.76235797197911    8.08137440799216
H         6.90155880465631    0.76829718094599    6.97543331516334
H         9.92240165959259    2.91299995301526    4.90717428029076
H         8.50395526643632   -0.43780731108987    5.80460494880899
H        10.09393770215215    0.32508279972413    5.90580289516715
H         9.19264353077910    0.37825386367079    4.39586449120752
O         0.76302426170942    1.46948547495650   10.46906275463859
C         3.76903426133110    4.04954200865921    9.15177291536532
C         4.89756684570404    4.09684192024896    8.35717806330458
C         7.32201385874213    4.10774190060659    6.68728224450583
C         8.46512071308855    4.12006349420931    5.90461166401758
C         9.09520657674370    5.41174864634609    5.47979899953418
H        -0.54232332993015    2.02559869861541   13.14641958950787
H         3.27911078072020    4.95395814752384    9.48690631593799
H         5.28331826793039    5.06364210812388    8.08137380585340
H         6.90155902415567    5.05770282992744    6.97543350079741
H         8.50395546294810    6.26380726107660    5.80460509035266
H        10.09393786600780    5.50091706995526    5.90580295340420
H         9.19264363351430    5.44774609985817    4.39586458104953

