32
CSD_code = TAHXAD | q = 0 | S = 0 | Stoichiometry = C13H14NO3Re | MND = 5
Re       11.16588198601222    1.64265462892501   10.13862776399779
O         9.57892060869950    1.53214953080382   10.63572007088924
O        11.93635106457510    0.29702020731693    9.53715380261719
O        11.86023828710639    3.13850012144608    9.92770086824332
N        10.07947973469428    1.89665200516089    7.77052854336831
C        11.94905593925593    1.37730217809305   12.16771101609855
C        10.78754181558227    2.00475054028561    6.65449028643317
C        10.20418660681964    2.01934421550948    5.40161494186683
C         8.81616790116871    1.91850161159426    5.29075142714034
C         8.08699937896293    1.81611125969359    6.47708834001134
C         8.75930966871540    1.80692976750680    7.68381763064724
C         8.15169561140093    1.90953950120222    3.98350363655820
C         8.71503237410496    1.22983370274955    2.90586999209101
C         8.08040204240055    1.20814088321196    1.67913323583573
C         6.87546396560674    1.87239177126306    1.48591135951183
C         6.31897897999784    2.55807034636134    2.56077241808842
C         6.94070029833359    2.57300445822185    3.79292999040390
C         6.17657241131469    1.83866356966462    0.16290219287068
H        10.81808468124615    2.12335508599672    4.52063758760874
H        11.58308543311752    2.17589619890942   12.80969262415947
H        13.03659719728337    1.40347240956998   12.14509818069157
H        11.62061378660985    0.41854421504943   12.56383154803345
H        11.85887242634328    2.08166105931031    6.77890046346501
H         7.01275465502489    1.72073325931156    6.45424459421483
H         8.23656861488843    1.71901393837540    8.62829896196946
H         9.64190004871533    0.69142347825112    3.03833217597591
H         8.52764826052477    0.66637966789834    0.85814250521200
H         5.38564960488830    3.08591045585904    2.42708468530192
H         6.49987697283217    3.12646659296038    4.60897559981500
H         6.85269868823988    1.52480936179895   -0.62825435234765
H         5.77177164717309    2.81781234800359   -0.08462926969936
H         5.34489930842383    1.13446162966419    0.20021717890689

