74
CSD_code = TAHYOT | q = 0 | S = 0 | Stoichiometry = C24H39ClN6Si3Zr | MND = 7
Zr        9.38791854999057   16.26296144904530    4.74845311377471
Si        8.18365281739920   13.21156791472488    5.81136649754192
Cl        9.38946075075570   16.26351092455370    7.12553345620851
N         7.66367933693965   16.13122864189523    3.22830820805112
N         8.01984218992760   14.64086270197850    4.86811930549448
C         6.97833439924046   16.60372168531827    2.19114692724498
H         7.35689923564168   17.52639070327281    1.76014308444038
C         5.85924490445167   15.98512904932490    1.67666249722760
H         5.33248089120263   16.40281734203519    0.83445107987711
C         5.42577127756154   14.80114454156273    2.28417746790618
H         4.54798052500499   14.29388666074069    1.90900796773737
C         6.11127601090375   14.29161260498188    3.35509294519755
H         5.79823909065050   13.39061628005533    3.85545611147066
C         7.25583285508625   14.97598799333200    3.83572162479010
C         7.27792068017799   13.41166224577867    7.48636913550504
H         7.67485384907411   14.26618447462062    8.02741529838949
H         7.40699669951771   12.53207338674078    8.10822397233601
H         6.21082268955207   13.56669787950559    7.35246249977592
C        10.07716992292245   13.03556935481404    6.05309030744265
H        10.56010388107794   12.64573241099052    5.15857143915702
H        10.30936244558123   12.35816665605333    6.86859615992530
H        10.52447911895951   14.00368579455146    6.28669900140137
C         7.57538517404625   11.60087692934206    4.96081488947094
H         6.50504169121108   11.46238168428285    5.07161207210439
H         8.05741357500074   10.73602514646009    5.40357985529991
H         7.80491891956600   11.59746710062209    3.89941334943026
Si       12.63382663268195   16.74557967748130    5.80953166127886
N        10.36349995586307   14.83466960153178    3.22850629935547
N        11.47691684834574   15.88999933293501    4.86668026830355
C        10.29614062560102   14.00230700834068    2.19348556776163
H         9.30782489161647   13.86932628556883    1.76229187358934
C        11.39062259251411   13.33950160504035    1.68110797640328
H        11.29160851590603   12.67242539848068    0.84055329208835
C        12.63283326461615   13.55591464367403    2.28846951069806
H        13.51046488253911   13.04721860243474    1.91479278593174
C        12.73222574617195   14.40704586042682    3.35713035657927
H        13.66911593902009   14.58642203262267    3.85735071664581
C        11.56798966708336   15.05878210913181    3.83584110517624
C        12.91513297321818   15.86016424403650    7.48374107525369
H        11.97716588786644   15.77647218971012    8.02570003693769
H        13.61305309405528   16.41128357241355    8.10520656871199
H        13.31412643665557   14.85853060995924    7.34882487284735
C        11.83993516812629   18.47329564712073    6.05318716195490
H        11.93543551417033   19.08718133386628    5.15909859995595
H        12.31124908504711   19.01232390672208    6.86876233819726
H        10.77804797960386   18.37657792424261    6.28759016357953
C        14.33170053659955   17.02423433837919    4.95668630645232
H        14.98718284487920   16.16676572424104    5.06699852404335
H        14.84006242892955   17.87446140386438    5.39831869861581
H        14.21838665343081   17.22412521694593    3.89532375874379
Si        7.34917875390815   18.83319966965412    5.81164383354163
N        10.13699031545585   17.82220242272901    3.22831746241710
N         8.66743739216172   18.25870023481587    4.86745850330564
C        10.89199294818821   18.18044562831638    2.19376456928761
H        11.50008651115771   17.39073146355402    1.76137752997948
C        10.92079916318143   19.46045851053952    1.68338540109772
H        11.54847718043593   19.70857486851421    0.84328991679280
C        10.11373131598217   20.42836145013778    2.29216115210358
H        10.11717020149897   21.44334062673344    1.92013447678611
C         9.32645240536058   20.08847763116729    3.36037062574889
H         8.70375285023765   20.81034282345919    3.86170245307822
C         9.34229091483660   18.75363884938689    3.83720402021766
C         7.97654383737702   19.51830055732624    7.48590888920082
H         8.51774491491784   18.74728152752173    8.02733348576478
H         7.15077624260711   19.84746781889272    8.10784275494736
H         8.64497615305792   20.36429027162042    7.35103715065394
C         6.24965854386214   17.28179790988499    6.05427578190913
H         5.67051757503686   17.05819212679276    5.15985911804116
H         5.54699456105330   17.41986683886675    6.86978415553514
H         6.86427689626939   16.41029652004450    6.28814022352671
C         6.25946313844203   20.16571296143849    4.96036587435696
H         6.67506023109742   21.16172532443483    5.07134422168415
H         5.26917613784801   20.18117777673617    5.40244335095267
H         6.14242217004230   19.96864636167876    3.89888726276657

