49
CSD_code = TAHYIM | q = 0 | S = 0 | Stoichiometry = C18H24N2O4Zn | MND = 4
Zn        5.81951163272687    2.04818006143665    9.46761576203678
N         3.69717938185137    2.03774481983658    9.45083760422078
O         5.81955514157121    3.07857662788120    7.68149469195307
O         5.81997281420107    0.89914725047782    7.76836986185287
O         5.81890372938576    3.20189710548419   11.15333205235829
O         5.81929526988477    1.02340391912550   11.25564542800226
C         5.81898619201201    2.14154053713817   11.81476454993140
C         5.81968437491228    1.96417721637540    7.11503220327808
C         3.02725252927031    0.91634194125209    9.67909635642661
H         3.62993697220729    0.04972702712070    9.91032156759542
C         5.81863482971122    2.21440348867163   13.33603210609842
H         5.81844545563273    1.19056857149737   13.72081147049988
C         1.63879110159924    3.17443919197387    9.09661123492748
H         1.12728758426739    4.09502818382978    8.86196390133897
C         0.93381492553156    2.00458612684358    9.33158749802480
H        -0.14553116552724    1.99130344231809    9.28348392063438
C         3.02218556132941    3.14360012590556    9.16694519445414
H         3.62118405405592    4.02433806992507    8.98646660348892
C         1.64411965451881    0.85219548192400    9.62982983692329
H         1.13665579916098   -0.08058101029666    9.82038630628706
C         5.81961391101691    1.90415932125663    5.59305172412269
H         5.81906638077832    2.93154277646594    5.21775080778100
C         7.07925505515761    1.17701077312056    5.12701025291155
H         7.96984016565941    1.72056990725481    5.43617832931833
H         7.08406503835719    1.08471464793161    4.04260764399238
H         7.10964252517939    0.18385060691313    5.56859925218126
C         4.55954322790399    2.94699748600699   13.79516970565840
H         4.52945349249084    3.93526273067557   13.34280187508727
H         4.55550281694485    3.05109834955177   14.87849808604620
H         3.66857571342552    2.40058417188006   13.49249267473149
N         7.94181080394794    2.03816331416573    9.45131284371402
C         8.61164512851983    0.91658133251125    9.67894526171812
H         8.00885707506903    0.05001499230388    9.91028483107626
C        10.00017064322791    3.17431575006495    9.09537672903137
H        10.51173814494078    4.09482753379538    8.86055295422729
C        10.70507317896413    2.00432406869289    9.32978454440587
H        11.78427448575374    1.99058807423854    9.28019369929933
C         8.61681557069888    3.14381446975029    9.16681477773650
H         8.01795637009040    4.02492593493066    8.98758213845639
C         9.99472623587432    0.85206754468770    9.62846386918093
H        10.50204073961427   -0.08102146033802    9.81797717068943
C         4.56057885504630    1.17577375819475    5.12732677056783
H         3.66953641175324    1.71834545676497    5.43690377703435
H         4.55547970257437    1.08362815066659    4.04291303976278
H         4.53139573603639    0.18252822646539    5.56880276212501
C         7.07776490375832    2.94665910956993   13.79561673449420
H         7.10800354140245    3.93513076932728   13.34371016293751
H         7.08171857659919    3.05024534680058   14.87899669582037
H         7.96868973091447    2.40027867760803   13.49275273554775

