53
CSD_code = TAHZAG | q = 0 | S = 0 | Stoichiometry = C20H28Cl2N2Zn | MND = 4
Zn        7.85639069577424   12.33286818598760   15.11032640673359
Cl        9.66452548567596   11.44306397430786   16.04660614915812
Cl        5.99103674212799   11.46669420887170   14.26879478272556
N         8.85443251132743   13.85215704253238   13.94122452480087
H         9.80988475523742   13.55477316683584   14.13678388016709
N         6.96269419066619   14.02933252116132   16.10878946718552
H         5.98913481380454   13.77380829035007   15.94615507670419
C         8.94103785060847   12.51466128323464   11.90016177229875
H         8.86155783778289   12.54213374927944   10.81636677483163
H         8.17969425463764   11.83889993173634   12.28667814765999
H         9.92214788413373   12.12665466583698   12.16529488429339
C         8.73760491876416   13.91422397475543   12.47449623614406
H         7.72549690709300   14.24799929283368   12.22919260118554
C         9.73531423635094   14.88560464917655   11.88008525672160
C        11.09391334333177   14.76548598733121   12.15068679104753
H        11.45486364369710   13.96749983605522   12.78487402167139
C        12.00118115942075   15.65549253892601   11.60540102971328
H        13.05352340920274   15.54961505089691   11.82366200514769
C        11.56339360516352   16.67752158447288   10.77990017320236
H        12.27239477667795   17.37150262958242   10.35424677743125
C        10.21380725618631   16.80303834820006   10.50093923339254
H         9.86496268998902   17.59584031968677    9.85598425109758
C         9.30685150194966   15.91329387024203   11.05022939318996
H         8.25345226847899   16.01422153282453   10.82857750758439
C         9.75439228441863   15.29593399026177   15.68196243721990
H         9.82590569056454   14.40501106815117   16.30219751065816
H         9.56536371774669   16.15996593175124   16.31406029485486
H        10.71161372517830   15.44488140603733   15.18550745067779
C         8.65167032108097   15.13015324910923   14.64018705564062
H         8.72443554538856   15.95924596049692   13.92249806593548
C         7.24134315100264   15.20835013650251   15.27508930274872
H         7.22153023670830   16.11402474122086   15.89733647108447
C         6.14791969435831   15.32563148074200   14.21703986126409
H         6.02123142805421   14.37825465475818   13.69741968062288
H         6.38702595522793   16.10259678181741   13.49524141682960
H         5.20266550639273   15.58517406739688   14.69033997329400
C         6.80124045038776   12.92930112900765   18.28258927960511
H         6.89029357143935   13.06822679265321   19.35703169611434
H         7.51338706648592   12.16663614373509   17.97137659965840
H         5.79473121518094   12.58113156286126   18.06102000269023
C         7.09299740365850   14.24195372609534   17.56017162311181
H         8.12655092339455   14.53209736117107   17.76863132740623
C         6.16621751302191   15.33667781799345   18.04494550604777
C         6.66824753486884   16.41679616724744   18.75892617659059
H         7.72732207580981   16.46885916263468   18.97016590185581
C         5.82719680654361   17.42097533358101   19.20627131895226
H         6.23291124665516   18.25357578024591   19.76158625268572
C         4.47071286287915   17.35846658500706   18.93985994606875
H         3.81301651807504   18.14174992691964   19.28539992606578
C         3.95967204085156   16.28473463553475   18.23019214128522
H         2.90132590497829   16.22804808744993   18.02286687358995
C         4.80104862767603   15.28066110246610   17.78687320353347
H         4.38303424388365   14.44479858203097   17.24295555983512

