58
CSD_code = TAHZIL | q = 0 | S = 0 | Stoichiometry = C19H29Cl2N3O2RuS2 | MND = 6
Ru        1.85210299952075    1.97333372981455    2.67536487625028
Cl       -0.02561953729744    3.39204481761399    2.49968406859309
Cl        1.73133981404927    1.27576205557852    0.42165812484712
S         0.48944403122271    0.21699087954411    3.06137223832391
S         1.86205039035057    2.75704512959297    4.82536383224348
O         0.27610452351796   -0.14594122707904    4.46099476215578
O         2.95697323459367    2.28357195367076    5.66968241844058
N         3.46506668602678    0.83224130993441    2.92613054251312
N         3.01092398452202    3.56079903404143    2.04666361972311
N         3.63114036039693    5.11716316797721    0.59690000304088
C         0.99602886441867   -1.32895263254689    2.23604180147311
C        -1.14398394056809    0.35369672721660    2.28651503458696
C         0.33108441006229    2.56487411716710    5.77980181182093
C         1.92305537016712    4.58033684780849    4.91029768505033
C         4.48322524531820    0.85573316130687    2.06190251580343
C         5.66341320802156    0.16877781162634    2.27267299409585
C         5.80900045953893   -0.58480039428177    3.42677051050832
C         4.73757086746590   -0.63900868835294    4.30617454559826
C         3.58909097497727    0.07329048222039    4.01784311508453
C         2.67975075982879    4.23901381253630    0.97318335987459
C         3.58432291931415    6.00054296540824   -0.53223026955515
C         4.66273227347738    4.99319692310120    1.49632860768655
C         5.89519059667642    5.61983662818137    1.61242970520758
C         6.72001642291464    5.25377312181438    2.66059534090243
C         8.05988333466978    5.90782338292776    2.80776005751603
C         7.21122781419141    3.90679609645751    4.73493568960955
C         6.31026059741341    4.27759390399131    3.59695617649672
C         5.08262887850367    3.65490998691349    3.48069471659459
C         4.25759437648874    4.00692361313343    2.41680639341416
H         2.89583019148597    4.90222069668924    4.55422787200475
H         1.13226369381307    4.95655405999694    4.27028711431199
H         1.78299416857937    4.88227441143667    5.94136891176063
H         0.10222621741436    1.50463617119377    5.82447137037889
H         0.49714251752227    2.96681164001804    6.77201480130131
H        -0.44651618677364    3.09964796971689    5.24632988095987
H        -1.63240166478332    1.23380510833218    2.69329218128327
H        -0.97846624898405    0.48337842849169    1.22207455405432
H        -1.71204320653559   -0.54213147602599    2.50737313632198
H         1.93132572503827   -1.65445018366183    2.68015385562460
H         0.22442433902779   -2.07095775244703    2.40378408168827
H         1.13071395141016   -1.11424112496047    1.18137738569878
H         4.33184844542760    1.43018122416459    1.15713779036973
H         6.45331585562165    0.22878861978788    1.54100576310019
H         6.72217801918072   -1.12264812759603    3.62961608639179
H         4.78580063707027   -1.22459841620274    5.21012862806349
H         2.74100252567288    0.03892536963421    4.68925066284303
H         1.74789108332368    4.11463107133544    0.44962092881239
H         2.64123754875927    5.85920775140393   -1.05548159216991
H         3.66120529705799    7.03935572250347   -0.20441469472278
H         4.40812892447103    5.78463259273267   -1.21562727052621
H         6.20510021621728    6.37394017432509    0.90488544168705
H         8.23370608511320    6.61686873858963    2.00278492481582
H         8.12561601348442    6.43895246778621    3.75646345413049
H         8.85403481789613    5.16286234038804    2.79151163860551
H         6.72655768748269    3.17379294940985    5.37359463611990
H         8.14489816189449    3.48410405974549    4.36527210082440
H         7.45813490643325    4.78178747931486    5.33456247787816
H         4.75613035782400    2.92669931657002    4.20863960048983

