76
CSD_code = TAJBAK | q = 0 | S = 0 | Stoichiometry = C27H42N6Ti | MND = 4
Ti        1.18466732982421    3.40201951190371    3.30090094766032
N         4.86502432830326    4.82178342826292    4.04784754229049
N         0.73649007856867    2.18752223140106    1.96248062258341
N         0.14508156929880    4.95578109512399    3.06807563843397
N         5.11977927236337    3.70353222462994    2.15139570508981
C         3.93040006476742    3.26580741386270    0.08078997877627
C         4.88759596943391    2.88791518856233    1.02960996241025
N         0.72791318644524    2.66499798603596    4.97253139555059
C         4.29122448465778    5.37160351080426    5.20868158651654
C         4.71527878571398    4.93708304462773    6.46813618241928
N         3.00179795208240    3.56865199073341    3.23965586388546
C         6.32651602362615    4.29542314357869    2.47711633999617
H         7.18180164485023    4.20794389002210    1.83867591656407
C         5.38584018545251    0.92277641280665   -0.25275247595653
H         5.94548154149900    0.00597743480803   -0.37555143192288
C         2.70576858138819    6.84246922060172    6.23999870532722
H         1.92167748905450    7.58138225325091    6.15117651723945
C        -0.31075250088414    5.51182413560139    1.81663548600550
H        -1.41393900592722    5.46695823251858    1.72964016106203
H         0.12179668816696    4.96072131768230    0.97575355426018
H        -0.02995123755087    6.57931668027014    1.71803700221108
C         1.58692623202843    1.10172427544458    1.54657129617498
H         1.20248335839323    0.12340340210414    1.89642023266267
H         2.59337170142492    1.24808011580592    1.95130386394548
H         1.66007004972310    1.04456042251701    0.44434587519038
C         4.16896125905563    4.00164518652048    3.14299565468540
C         3.28171925298971    6.33114154952738    5.08525360675611
C         1.59778465145274    2.94566985717755    6.08718609884182
H         1.05997585436653    2.82816585442694    7.04674070103158
H         1.96786710903048    3.97362952747059    6.02595047839216
H         2.47023321124360    2.26011247808564    6.12043889716404
C         5.61229854916678    1.70232959633696    0.87109988944227
C         2.83540366553749    6.79518633867921    3.73453146643944
H         3.68818147853730    6.92633082077396    3.06906553368130
H         2.29960399001851    7.73876528003937    3.81279018013076
H         2.16803295321749    6.03560256010193    3.29706396236171
C         4.45138335929183    1.28358786985840   -1.21164354911113
C         6.60429285976664    1.25565171389560    1.90464470859438
H         7.58016395063802    1.70964430902889    1.73095863580941
H         6.72603710743118    0.17564125744210    1.86623754915801
H         6.27337450933422    1.53680294735318    2.90237075825824
C         3.72916753010180    2.45303092554982   -1.02385283144961
H         2.99193769890261    2.74269619642036   -1.75975947584169
C         0.21225256744507    1.32305957060203    5.05738066900212
H         1.01721098111424    0.55948978430507    5.00919499047826
H        -0.49477676095875    1.14170601012629    4.24307302431126
H        -0.32165038739847    1.16744262559305    6.01346183535394
C        -0.60730534145304    2.01606877767290    1.47528309731228
H        -0.64791148811142    2.07649336272304    0.36991094267464
H        -1.25867650187048    2.79178745881476    1.89145908857935
H        -1.02330524032009    1.02688855950630    1.75138593095550
C         3.11681445249034    6.43405848008653    7.49948899782579
C         2.47236446149200    6.98007084120177    8.73789731664111
H         1.77149065234227    6.25068246818466    9.14449121082329
H         1.92486573905837    7.89388116650655    8.52161445517679
H         3.21832183113075    7.18813050741380    9.50230638809066
C         6.17119652502663    4.97388639265741    3.62662125288502
H         6.86735049922578    5.58118257883631    4.16906936177004
C         3.12912206913487    4.51708932685620    0.25684639902256
H         2.37155953534214    4.34583340969782    1.03878478973341
H         2.63424772676552    4.78850098868980   -0.67320375272862
H         3.76412294446914    5.34361991401377    0.57511523084023
C         4.12592537697506    5.48450563302958    7.59578611594106
H         4.44780747361589    5.15242372987835    8.57287454414320
C         5.76903791853761    3.87736545328804    6.59174242383768
H         5.76305486450954    3.44987142032555    7.59129974733544
H         6.76064841606306    4.28895426060658    6.40305069212189
H         5.59154407626782    3.08416827346696    5.86687897048904
C         4.19856388350702    0.41379834725708   -2.40617504398170
H         3.96380529832554    1.01622367744488   -3.28094954414898
H         3.34998745836807   -0.24370730044742   -2.21403384278795
H         5.06352934137945   -0.20702040041514   -2.62667329731657
C        -0.51530130957177    5.60419728235902    4.17617403585047
H        -0.34310952226699    6.69797877593122    4.16432829084274
H        -0.13920947325615    5.20189808389956    5.12101324696787
H        -1.61224083014650    5.45507770824311    4.14025369924812

