64
CSD_code = TAJBOW | q = 1 | S = 0 | Stoichiometry = C24H33Cl2N4W(1+) | MND = 9
W         7.47691757194436    2.45114105162181    8.10786998816038
Cl        7.82869835642432    1.60298926850309    5.94790964255453
Cl        5.77623504178856    0.83611468127477    8.18293997246233
N         9.53144761545376    2.23757468500962    8.15643823668416
N        13.70489734265535    1.79587665260688    8.32156960764790
N         7.91627168670894    1.58416416916215    9.93144878617607
N         8.86164101404525   -0.27576466269700   13.57702595989250
C         6.97702138623843    4.41240603480493    9.27842244425216
C         7.87014205104775    4.76700623219046    8.21335060193302
C         7.21114341629528    4.49175781472423    6.96996968290776
C         5.92339663935839    3.93302304671959    7.26410940602366
C         5.76428916577718    3.91689492646655    8.69279952105091
C         7.19402925210754    4.75584266034529   10.72280080933453
H         6.88233122353329    5.78556575841147   10.90471299250096
H         6.61866666241240    4.10618352392558   11.37910882697880
H         8.24522261405681    4.67003977836077   10.99218580340663
C         9.14804901177783    5.53058570622762    8.40207049720170
H         8.91903931286137    6.57672602970020    8.61033412845399
H         9.72200400756349    5.13917762784490    9.24091909907712
H         9.77301017554663    5.49082427950122    7.51351438233334
C         7.65245277607839    4.91737072735487    5.60116513301780
H         6.97235749912394    5.68380423802465    5.22844068421700
H         8.65645098630237    5.33385410871091    5.61546767447219
H         7.62830205874325    4.08105604711496    4.90269483494820
C         4.84795056728754    3.64912819668692    6.26245234542251
H         4.26914517394516    4.55143875046572    6.06026396973008
H         5.28015679348805    3.30199780742213    5.32589183690016
H         4.17050084985299    2.88322614886083    6.63504275210270
C         4.46116616852614    3.67823999803429    9.39706016364139
H         3.75664088331737    4.46332618323411    9.12013691401392
H         4.02637071903226    2.72194054887136    9.10733368472438
H         4.58208615882119    3.69934141365576   10.47734947109399
C        10.35168101647617    2.70818246287909    7.18620676339159
H         9.86182048477001    3.17391628809075    6.33920320435829
C        11.70876898154498    2.60004290861965    7.20723102652330
H        12.26900156351984    3.00518341375883    6.38369794797543
C        12.36520029490141    1.94816487091129    8.28747887239815
C        11.52446921326322    1.48669226904931    9.30677288670916
H        11.93184651794945    0.98887427569048   10.16717327941368
C        10.14444223352783    1.64314176636372    9.22845430571338
C        14.52266262013000    2.23636495578594    7.21469852257643
H        14.21878221401511    1.75124233582536    6.28416453790763
H        14.45972304341037    3.31977844183853    7.08643314912307
H        15.56022728999562    1.97916691782174    7.40586622562838
C        14.33485032333304    1.12845291587910    9.43579851702556
H        14.11479843382894    1.64519131789914   10.37320028053472
H        13.99984077800968    0.09074881017726    9.51626173735336
H        15.41166133997917    1.12713329308820    9.29780890290659
C         6.98860172428193    1.35010168045695   10.89131707702844
H         5.97123405379025    1.62730752343886   10.64258935368121
C         7.25563272722658    0.77262223326154   12.09521790587615
H         6.44396569404096    0.62583524911533   12.78499777795479
C         8.57540477122986    0.35316612529590   12.41874573690188
C         9.54728220045204    0.64494901397437   11.45476373981268
H        10.57671967875039    0.38786757968286   11.62293869499613
C         9.20835188960690    1.25466759400686   10.25142348548064
C        10.20977893904043   -0.70997517459860   13.85673537837258
H        10.56367054318368   -1.40842422890128   13.09375762059338
H        10.89326735028365    0.14186300940895   13.90204061895591
H        10.23742725008907   -1.21595763735213   14.81716244688508
C         7.81456694072830   -0.58241068019136   14.52438117660659
H         7.34553131720593    0.33036803081261   14.89987338443077
H         7.04695354573781   -1.21492610652268   14.07185931904469
H         8.23630084357004   -1.11658488869023   15.37064627052333

