85
CSD_code = TAJBIS | q = 0 | S = 0 | Stoichiometry = C24H52N8Ti | MND = 5
Ti        2.56105209941118    1.00342558887824    4.24798610312495
N        -1.27882649842206    1.33861069819055    5.33289139091668
N        -1.33662666621569    1.68171871641656    3.13429950406758
N         0.80989936637832    1.48101101375722    4.16468432092296
N         2.34319731060419   -0.78986782500759    3.64282137599561
N         3.67461657793885    1.57283563619796    2.81569459271837
N         3.40888990358570    0.66615427608569    6.11733495244267
N         3.13074091522605    2.74533817394108    5.41488302065365
N         4.66232738596282    2.30172908217056    7.28037240741038
C        -0.44806008050167    1.49104486889952    4.20590118030697
C        -2.59606407554603    1.42929982173623    4.93301787882569
H        -3.41979956730317    1.34107262217457    5.60854838790340
C        -2.63023679035066    1.62851770620566    3.60508007090611
H        -3.48659973235025    1.73861679889197    2.97467182911775
C        -0.79839486179813    1.21860156153076    6.70318060723199
C        -1.97371872146332    1.12984279476894    7.68202285117638
H        -1.58393096927840    1.03920870875206    8.69293938716378
H        -2.58933293549400    0.25689806118371    7.47759668571256
H        -2.59171327719377    2.02364667461109    7.63817038275210
C         0.06137031899259   -0.04354639335910    6.83364702349931
H         0.93798821989814    0.04323182991793    6.18178602815347
H        -0.51564312539182   -0.92408980509893    6.55563376209748
H         0.38935755621018   -0.15593323619790    7.86507083767748
C         0.04761778379873    2.45279466603877    7.03241470208570
H        -0.55255299805375    3.35559432965877    6.92768761099803
H         0.89281436235876    2.49215985521394    6.34149252607531
H         0.41861017106544    2.39652435052293    8.05324170646504
C        -0.91932951125447    1.83388097208617    1.74746375504570
C        -2.12762438789593    2.09051661588606    0.84260360139161
H        -2.81038901997346    1.24413626954223    0.84495186103017
H        -1.77805633140221    2.23859669777009   -0.17603012255610
H        -2.66398207079175    2.98511717340139    1.15055608101402
C         0.04430261264172    3.02145072102296    1.65190212411988
H        -0.45683809341480    3.93570401201344    1.96413461874596
H         0.38941787138476    3.14502222482025    0.62870160369237
H         0.89766819509507    2.83576122568405    2.30655579164143
C        -0.21828598743320    0.54210578015452    1.31091094511135
H         0.63317025954574    0.36028574584857    1.97185353586035
H         0.12385431363383    0.62685616670860    0.28209030424985
H        -0.90828421690058   -0.29718077686429    1.37954429157369
C         1.18352265304524   -1.64670773631694    3.73063989819865
H         1.36785775254195   -2.53196682523512    4.37072165884587
H         0.90357111237157   -2.03754339456018    2.73423787628932
H         0.33166763935088   -1.09917891262453    4.13489539127588
C         3.38946467276048   -1.49671852814458    2.94466348144735
H         4.27795381037869   -0.87138447846654    2.84552867347432
H         3.06240953763313   -1.79331611391540    1.92860749241599
H         3.67470041706736   -2.43187004268622    3.46683792138535
C         3.45068261094121    1.67057462667626    1.39784035041031
H         2.44222874165613    1.34146095859279    1.15349293229231
H         4.16731108498554    1.04153524363507    0.83319112842570
H         3.58451823554419    2.70738772501541    1.02848422604782
C         5.04656781254092    1.88386081444551    3.11146796747098
H         5.30592123634445    2.92506232509905    2.82580433169714
H         5.74636238997884    1.22866566040294    2.55066027814607
H         5.25500602727758    1.76258960824011    4.17725397684610
C         3.37645640564145   -1.65822404837052    6.83510934642994
H         2.50375364178894   -1.53425922086526    7.47172421321381
H         3.98522643415563   -2.46877504996986    7.23162042016400
H         3.04263447894556   -1.91225222471684    5.83242292884608
C         4.18828477274420   -0.36424209323784    6.77825689425170
H         4.43773033187933   -0.06930424813050    7.80864104373697
C         5.50926857963676   -0.60309035432747    6.02984970446793
H         5.29965280787293   -0.85868643695320    4.99153936942118
H         6.06770918528708   -1.41630897333790    6.49056894795337
H         6.12287909735173    0.29592925939072    6.05924214112501
C         3.73125235911680    1.94816580000093    6.25904549034421
C         2.53367019032157    4.62954038328319    4.06768748549592
H         2.95641868469652    4.11233741488104    3.20876914084872
H         2.62968368743038    5.70523338830793    3.92938604411208
H         1.48018271381000    4.36515938703261    4.14323650303839
C         3.25435350648131    4.18168577556645    5.34173673655666
H         4.31309347989541    4.48282388666100    5.25503482216430
C         2.64375939738989    4.91796512473391    6.54522177167656
H         1.56865805898801    4.76331437996234    6.56910582254273
H         2.84137805215142    5.98536446993115    6.46192664012851
H         3.05960643350808    4.56313608357946    7.48320107329294
C         5.72366037398398    3.24611727693070    7.04688517494490
H         6.05115180427950    3.18281803159689    6.01072293976240
H         6.56751118656049    2.97322821347791    7.69038600056580
H         5.45172112583068    4.28741040294296    7.27598238593956
C         4.17798218177718    2.29200607404274    8.64082079249812
H         3.94274600455684    3.30487161866256    9.00209601889728
H         4.94143266762370    1.87167692875341    9.30542389952240
H         3.27429131656684    1.68941441586171    8.70351914606135

