30
CSD_code = TAJDOZ | q = 0 | S = 0 | Stoichiometry = C9H12CdI2N4OS | MND = 5
Cd       11.81892240997687    8.32615184857923    6.25631770942253
I        10.52149203386759   10.05871506920231    4.60247895682393
I        14.27146364514338    7.24924999105452    6.24671131375604
S        11.50512688515792    9.92663902976333    8.68705367558359
O         8.17166837678955   13.84980066432160    8.70446133622623
H         8.59308061536269   14.24593649282921    7.93217523906742
N        10.53218115624929    6.15903400461639    5.93481513151868
N         9.47626826622893    8.17695143330977    7.40265694271950
N         9.02692356176066    9.28885944329151    7.96858260934117
H         8.03176449292752    9.52098643992264    7.90057928336883
N         9.33258728220090   11.38445506640514    8.85802306748053
H         8.38584554813169   11.62235950982621    8.58119505441759
C         9.21449211338262    6.17629647545383    6.17996042721487
C         8.37419906552545    5.13948263238082    5.76976294202545
H         7.31548133643769    5.19093534702434    5.97252783321011
C         8.92291846477668    4.05377465962662    5.11118488266533
H         8.29607141723958    3.23728455934169    4.78559114000772
C        10.28929653279802    4.03583622889143    4.87874578234730
H        10.75990748609068    3.20911472873462    4.37196568523554
C        11.04899049152383    5.11676291919504    5.30628679064965
H        12.11893224633615    5.14264820034148    5.13641947075357
C         8.68068293566159    7.33225201667715    6.87359136276671
H         7.59521177025278    7.46082038748609    6.89495552754260
C         9.88891710906056   10.22935424394900    8.47774055393129
C        10.11457904372282   12.52168047506350    9.28600602127466
H        10.75800926313071   12.86069134749765    8.46304485558197
H        10.75739013076819   12.23185538692637   10.12026282602725
C         9.13817807961143   13.62490809267392    9.70173078815802
H         8.57703370588826   13.31032754814820   10.58502837047057
H         9.69188453399688   14.53853575746895    9.94394442041088

