44
CSD_code = TAJFUF | q = 0 | S = 0 | Stoichiometry = C17H23Cl2NRu | MND = 9
Ru        2.00995632310624    1.03216841042757    1.68272447441328
Cl        1.95849899096506   -1.27547368281318    2.13265513202621
Cl        2.66538627148203    0.51190377538000   -0.51110831146679
C         1.83388170983704    3.30696186915679    2.00038499670567
C         1.70660731614221    2.64423155825028    3.24957905949530
C         0.71301064588708    1.67279855843123    3.46779568614720
C        -0.12016715167681    1.32709137403195    2.36671212998477
C         0.02530098200392    1.94911178349801    1.11797635630328
C         1.00830148485901    2.96742021478369    0.92175383373325
C         1.13302632291884    3.64073438500681   -0.40818635583389
C         1.76875618948655    0.38023938419155    5.33782903706990
C        -0.00725055078998    2.11566060028566    5.81184482570415
C         0.49413590610676    1.05439507056475    4.82739101121451
N         4.13048890049167    0.66549326226746    2.02415338290358
C         5.77688564850141    3.51316951966927    3.72230674164501
C         5.17572826230326    2.28383413667634    3.52525412519067
C         4.81595451066412    1.88381536880159    2.24274737208829
C         5.08631184163807    2.72039309092287    1.16258693901141
C         5.68729219429216    3.94598692764528    1.37326267313766
C         6.03759997217244    4.36289041943381    2.65332258617239
C         6.70220426859623    5.68590495931602    2.87959143145176
H         2.55781947937785    4.10684929930136    1.89562887809201
H         2.33340293699209    2.96997733698069    4.07200617773190
H        -0.91125314067223    0.59775355820753    2.51242499824885
H        -0.65522950256193    1.70753552666270    0.30751089613514
H         1.79767842004506    4.49962732132979   -0.35062971942331
H         0.15732332124120    3.96130206170265   -0.77073140449599
H         1.54686594847424    2.93280523434296   -1.12983573415093
H         2.55532381897048    1.11154968646876    5.51123095351666
H         1.56835298630544   -0.13497412311124    6.27376253510856
H         2.10853315028120   -0.35045769968520    4.60471090296094
H        -0.91856170606556    2.58214064933922    5.44273827640625
H        -0.22005802236731    1.65696940510030    6.77423931481072
H         0.74105582481527    2.89155508909302    5.95924131623005
H        -0.27549916847947    0.28173082294780    4.72821283814126
H         4.23868250520317   -0.00435416753685    2.79249168149221
H         4.41006219294009    0.21589755607899    1.13875768714813
H         6.05106944728352    3.81802649277750    4.72191651937078
H         4.98030497990036    1.63044330176064    4.36417335076575
H         4.79823091675685    2.40377275106277    0.16969160214428
H         5.88845040797375    4.59053342720371    0.53014212006314
H         6.32287118984587    6.16109627255676    3.78199356099727
H         7.77643223533618    5.54660359226238    3.00293632389921
H         6.54223173941443    6.35168561922131    2.03530979770809

