63
CSD_code = TAJGIV | q = 0 | S = 0 | Stoichiometry = C28H30N2O2W | MND = 9
W         2.38460486867262    8.41506745792656    2.26514076334686
H         1.15318244352571    8.93479207671221    1.34090118972964
C         3.03536918292799    9.26897389766848    3.89875006757616
O         3.48798471366766    9.79548041549728    4.83746407685861
C         2.82242474293195   10.31535464173642    2.16611973193184
O         3.19980045929714   11.41379389430920    2.10807487480502
C         3.36755372661954    6.31100108496976    2.48647125944355
H         3.44621121722935    5.69878323669229    3.37459707844858
C         2.37951189074849    6.19038614899849    1.48522560669355
H         1.59121427596568    5.45074258109524    1.45940898097184
C         2.76353003548122    7.01395693876527    0.39495158483288
H         2.28557083742764    7.03319967771964   -0.57676977501372
C         3.99083598798683    7.63421687776639    0.71850328807307
H         4.59444642573527    8.23303146193311    0.04860879033880
C         4.35584092360430    7.21403849367523    2.01551572627591
H         5.29892040519421    7.42473779489860    2.50352762984905
C         0.69197112375363    8.51646063492612    3.63334602285234
N        -0.10139230435067    9.58114662982488    3.90303840657793
C        -0.97168836957317    9.29571363851151    4.92497676013554
H        -1.67576737717398   10.01634510147057    5.28769103438649
C        -0.73058803179340    8.02323143206976    5.30390295932860
H        -1.18548862949338    7.41023615852406    6.05497244837092
N         0.28692685904138    7.56029243795157    4.50379704992254
C        -0.13215869625804   10.82340456248347    3.20643561650320
C         0.53684578019643   11.93549325002813    3.71387518995772
C         0.46803477582649   13.12726367263254    3.00476528739030
H         1.00339354573203   13.98630412570120    3.38170611361889
C        -0.26057079097344   13.23754147155031    1.83212573993310
C        -0.97304094598248   12.13264124954500    1.38746149981811
H        -1.57520555127911   12.21332450903130    0.49394058059955
C        -0.93139667869565   10.92540585444895    2.06412531759729
C         1.30424379527484   11.90031173247122    4.99895614873785
H         0.98428816175006   12.71652840939198    5.64517896281206
H         2.36532483926953   12.03220939678217    4.79692410671387
H         1.17249813689495   10.96086801161372    5.52803115659844
C        -0.27568235130673   14.52394170095022    1.06529672118556
H        -1.12525944641403   14.56662957989797    0.38842168686207
H         0.63638745230592   14.60562936801148    0.47453875983487
H        -0.31466029467433   15.37711055584125    1.73907398477955
C        -1.73463996292131    9.75457643033829    1.58678647034400
H        -2.31583554691989    9.32194333809540    2.40014790450655
H        -1.06409127009030    8.98655449641869    1.20290629099740
H        -2.41160111466211   10.05477631624802    0.79199707718302
C         0.72658135053074    6.21120497630152    4.55038171531463
C         0.11754523519301    5.28514353351496    3.70132390809659
C         0.51845025835393    3.96067488538021    3.77257766120059
H         0.06291110559505    3.23345379955022    3.11524841032990
C         1.49131031070871    3.54633781210081    4.67365707231616
C         2.05372567830276    4.48315753319573    5.52818975458438
H         2.80089952190043    4.16882625663878    6.24309920302680
C         1.68060375454266    5.81982702081528    5.48810994343985
C        -0.95283787659951    5.73064836911384    2.75104108815533
H        -0.60688477524468    6.57370311391700    2.15223508099206
H        -1.83518042835106    6.05670106452955    3.30254697709695
H        -1.24223890252183    4.91922641750007    2.08817623219974
C         1.92429561873899    2.11290295985099    4.70753535072831
H         2.48954248956755    1.89651823482472    5.61034268570696
H         2.55737213139719    1.89523869442871    3.84697745343247
H         1.06282520895695    1.44952840139870    4.66254934629051
C         2.27851056004109    6.82103175784653    6.42641223371954
H         3.02891533463417    6.35492507398805    7.05928179313006
H         1.50844013851196    7.25558344167612    7.06358922002639
H         2.74396404124838    7.63422590832550    5.87251469850043

