92
CSD_code = TAJJOE | q = 0 | S = 0 | Stoichiometry = C35H48Cl2N2O2P2Ru | MND = 6
Ru        2.62427960645649    5.15077421798827    2.73295053098603
Cl        4.69621643301367    4.72731004156046    1.58517279475621
Cl        0.77650583368408    6.00434951509440    3.97566966506176
P         1.18079431828819    4.40114795251482    1.11363335280420
P         2.70759062218512    3.09053196166926    3.74276125265362
C        -0.37466546974782    3.67057735611658    1.77472733180306
H        -0.12245980909713    2.69045337009821    2.19197108619847
H        -0.66944255223574    4.31067182758057    2.61181059233395
C        -1.51813145785019    3.52490823592523    0.76551868579762
H        -2.01231976106478    4.49675645495159    0.61748428867078
H        -1.14236681108399    3.18181064290522   -0.20290565160762
O        -2.46126498313416    2.55467742541707    1.15485816758554
C        -3.20356385101884    2.89901031708356    2.30053863330436
H        -2.58279238708497    2.91049364531645    3.20283663529152
H        -3.97375201792841    2.13698365635248    2.40479166348636
H        -3.67600918633662    3.88138885035584    2.18159791986748
C         1.78365548594690    3.17911381236954   -0.09506649445621
C         1.30674586936754    1.87624740033999   -0.20459466320332
H         0.46413232846149    1.54514746294390    0.38450809723316
C         1.91017754241048    0.98773560785016   -1.07866624971272
H         1.53505897572612   -0.02259058757646   -1.15548151859815
C         2.99462880038238    1.38416892840183   -1.84322772495222
H         3.46728041862128    0.68316592303237   -2.51577318346832
C         3.47561851816402    2.67980595189451   -1.73966706261983
H         4.32506660296865    2.99236732435844   -2.32918223514390
C         2.87562074929288    3.56916150280691   -0.86915559961350
H         3.25975809114085    4.57594059397049   -0.76823145964017
C         0.44537508971990    5.68794127984122    0.03276622440672
C         0.44569585357751    5.64867923323106   -1.35623700314255
H         0.91150842277642    4.82459497787765   -1.87671917124884
C        -0.15776766783426    6.66508835750146   -2.07793935762718
H        -0.15560499473668    6.62593001814870   -3.15754631002997
C        -0.76597586736806    7.72367379103694   -1.42492015502965
H        -1.23584601360485    8.51194708942031   -1.99447867693993
C        -0.77448421327754    7.76674171931941   -0.03939196638940
H        -1.25308493262555    8.58732597977422    0.47508758401347
C        -0.17153354975223    6.75648464727301    0.68657312415055
H        -0.17874857465473    6.77901341507718    1.77031746342484
C         3.30294546354411    1.75560437844572    2.62186163817465
H         2.48290957946379    1.52783716518207    1.93351516942134
H         4.10734526011176    2.19394424144407    2.02476448747003
C         3.77051384398522    0.47062935646205    3.31374662310427
H         4.80524424280492    0.59065980845678    3.66787341316592
H         3.13952562980587    0.24202753920959    4.17761432762039
O         3.67060886901466   -0.65924632565518    2.47933439811178
C         4.56353083650626   -0.65337376531700    1.39129196160806
H         4.32287780703824    0.13306746170811    0.66768110849608
H         4.46479306381782   -1.62494898259900    0.91064861318089
H         5.59714012834929   -0.51865764478971    1.73205268068985
C         1.20363482608725    2.39960809105707    4.50423439966660
C         0.56474667250328    1.23921862165055    4.07640015454960
H         0.99128879081813    0.62734103175664    3.29544246682008
C        -0.63297708852530    0.85353998728338    4.65429601834602
H        -1.12272554515186   -0.04742410176602    4.31428949379819
C        -1.20818652432719    1.62035146905069    5.65363871142464
H        -2.14771676007429    1.31854877382034    6.09327582474089
C        -0.57948425601917    2.77818486726392    6.08303853432444
H        -1.02739673821593    3.38463346920409    6.85633504147852
C         0.61666531367142    3.16619882551255    5.51026943723739
H         1.09653750241126    4.08361971619101    5.82359775649368
C         3.94422853707149    2.90360345216235    5.08639179322284
C         3.65237993081823    2.47178774449279    6.37453995990039
H         2.63694863164353    2.22503189819769    6.64801417173198
C         4.66527367691159    2.34909084623719    7.31124924119256
H         4.42935226801574    2.01055496232682    8.30961176116178
C         5.97331015456779    2.65129645485617    6.97407760884618
H         6.75856043612895    2.55143591611509    7.70881343114690
C         6.27276757055610    3.07858294719383    5.68974825251983
H         7.29288656490805    3.31029761433948    5.41943610786013
C         5.26531721541053    3.20568078828833    4.75278738716571
H         5.49347233710450    3.53662129121844    3.74714748844690
N         2.82356216713056    7.09408182229054    1.76508797200013
H         3.72358630918624    7.01482416482613    1.27956841436373
H         2.10199706223290    7.15729234742068    1.04407864532432
N         3.91638056640489    6.02542915408887    4.25729721149549
H         3.84312290013105    5.42168386874851    5.07803364517715
H         4.86377676425914    5.90610679260846    3.88698720486221
C         2.78337477362416    8.33131554110316    2.54233736326097
H         1.81848910241698    8.36420387695768    3.05882391766687
H         2.84450748234227    9.19914327421186    1.86885099026412
C         3.90758507735218    8.45000128943046    3.58557878751438
C         3.72351191646379    7.40614009411371    4.69983373977031
H         4.42788118926297    7.63953480994076    5.51200106029288
H         2.70488555819435    7.48694827520944    5.09332016760504
C         5.28703602515969    8.31990681507910    2.93096890331755
H         5.43212312758943    7.35184312896151    2.45447187289254
H         6.06762574035622    8.44862014656448    3.67834314529860
H         5.41533476519250    9.09182766130297    2.17457702129155
C         3.79007713377402    9.83557929007269    4.23096956486161
H         3.90480968783089   10.61599535281007    3.48259181193611
H         4.56134516341807    9.97217055064958    4.98515206023914
H         2.81947378512933    9.95467394476386    4.70621642709541

