141
CSD_code = TAJKIB | q = 0 | S = 0 | Stoichiometry = C66H64Br2N4O4Pd | MND = 4
Pd       11.80165164550279    6.99989689255503    7.33844329733961
Br       12.67381797438376    5.53029675939708    5.60312894651485
Br       11.06259241961466    8.74716031186171    8.90935103822546
N        14.27998960023150    7.28392993587885    9.11608178321860
N        13.50104032590949    5.28154144180418    9.08816414710332
N        10.20926635889953    8.56567755200242    5.40113415825498
N         9.01372031259250    6.88682498469982    5.99510920456755
O        16.11649087547437    7.29409661168578    4.29204585222230
O        13.47540136500751    7.86313794607752    1.21698153061658
O        11.34797866433108   12.11904984922709    1.23258721615481
O        14.28919023024405   11.62114001516744    4.97438183246091
C        13.32987220900198    6.51120943981225    8.55686504998604
C        10.21632697819579    7.46777380207408    6.17491051721183
C        14.53960888362990    5.29283749132683    9.98439525038320
H        14.82339666876997    4.42263689172832   10.53922191505538
C         9.02035985001754    8.67693223338780    4.73242264049466
H         8.82120132869371    9.48026045107569    4.05412417018592
C        15.02873425351281    6.55307272936559    9.99938169536632
H        15.83287552470678    6.98325060565530   10.56031787259580
C         8.26500669151022    7.62023117783336    5.10688142898225
H         7.27467824054837    7.32445552852367    4.82647191539765
C        14.52185067217623    8.66581264722421    8.78129298078239
H        15.43755875273891    8.97891002351565    9.29445162012345
H        13.69739563962594    9.28514768105228    9.15134676085639
C        14.69123599211895    8.88126759921117    7.29296728454988
C        15.28100011389248    7.89828253720669    6.49941894338355
H        15.56325678529626    6.95289408945631    6.93631498651543
C        15.53316606512562    8.15887299848245    5.15904315576746
C        15.21465441876252    9.40555702290127    4.61644104741787
H        15.44170870510173    9.56433023301144    3.57579908784155
C        14.62719113985896   10.38076837830464    5.40397094854957
C        14.35630427928823   10.10817614323932    6.74891088334253
H        13.90057322744681   10.87782637064151    7.35129763678832
C        16.36720780248689    5.96590772139219    4.70874300844283
H        15.43087701592812    5.49222278076374    5.03101181340452
H        17.07723280835701    5.96512332366384    5.55198471949275
C        16.96228550862710    5.17667773471988    3.57296915255971
C        14.64740538244339   12.00001386710698    3.66020296399916
H        14.14273448168723   11.34706889162895    2.93137102118166
H        15.73338679851546   11.90140867322920    3.52177970884613
C        16.89433054799278    3.78983829486506    3.60257579021404
H        16.38102935439154    3.30089398091607    4.41764057028973
C        14.22642609670855   13.42627470954292    3.42776923797293
C        17.47406122018844    3.04109029424501    2.59603373007426
H        17.42015226563685    1.96276838775945    2.62939695635329
C        13.04570624768404   13.90767052572060    3.97543936205827
H        12.44950244160675   13.25117851882281    4.58824277684922
C        18.11713768926125    3.67061630834559    1.54376475647831
H        18.56762159218859    3.08547071857511    0.75597696285416
C        12.65364682890829   15.21509971580612    3.75327794063527
H        11.73475990772068   15.58191873897080    4.18652455084361
C        18.17495958964677    5.05166652053286    1.50290514576568
H        18.66802525646353    5.54785725973549    0.68023142959193
C        13.43749064787308   16.05502370418925    2.98121827477880
H        13.13386648799832   17.07753456915533    2.81314315937036
C        17.60449095583418    5.80239007693985    2.51530896169103
H        17.65024709761235    6.87966179543955    2.48745896629055
C        14.61459255113831   15.57977356392960    2.42845353564285
H        15.23159566154553   16.22991371183114    1.82493716356243
C        15.00765078776584   14.27124396290527    2.65130420658830
H        15.92826786127636   13.90423314991514    2.21842155714830
C        12.80528298878884    4.09934870295636    8.70619529364552
C        13.50852365001301    3.09568833032752    8.03287758152295
C        12.83164991871244    1.94125122291327    7.67830064799025
H        13.36176528975190    1.16710969905134    7.14299578004385
C        11.48834424098548    1.76236716385611    7.98063534682361
C        10.81611284663307    2.77349063534942    8.64577960603791
H         9.77033854216788    2.65525827570895    8.88309151462339
C        11.45140059795956    3.95312842413793    9.00781695888656
C        10.68201321305687    5.04833816581601    9.67978226956484
H         9.75267953163013    4.66757491286618   10.09514600108995
H        10.41889608848656    5.81612483508634    8.92838938924352
H        11.25933261596686    5.52472576169654   10.47348815792190
C        14.94941697647261    3.27327722889630    7.65870443139040
H        15.24033973381144    2.52083638655770    6.93110315352083
H        15.60184385204785    3.18000366907192    8.52674451693760
H        15.10698276696951    4.25476527207618    7.21523843662495
C        11.29946064194911    9.51370540287930    5.30664578912979
H        12.14146732429794    9.10922839955878    5.90010178421144
H        10.98429701219333   10.46696686039411    5.74409183207799
C        11.71426184885816    9.69165593497621    3.87202201801879
C        12.43444845459165    8.67241963578689    3.25919896164653
H        12.70774294658668    7.80469112572937    3.83623533890520
C        12.79005755152529    8.79083604709948    1.92299918319318
C        12.43858733575327    9.94393455688998    1.21164340834337
H        12.73895815749943    9.99796440827560    0.17817749666815
C        11.72696445635949   10.95896715064431    1.82893820325398
C        10.78103115001708    0.50918004716022    7.56558547895883
H        11.38946934810338   -0.36708909219536    7.78069792655092
H        10.59460612537291    0.52990381637985    6.49188417921987
H         9.82822669502594    0.41273290321049    8.07975389421559
C        13.87348141312062    6.67156532360767    1.87733561249489
H        13.00872015833854    6.17297320479757    2.33203520699921
H        14.58793231296257    6.91195969197755    2.67581175850731
C        14.53353239727844    5.74312274569369    0.89694373521590
C        14.49359981151349    4.37302221095314    1.11979239688835
H        13.98068061725226    3.99278475274884    1.99106134811246
C        15.10883434077257    3.50507977713848    0.23732656211386
H        15.07117703873252    2.44079061811278    0.41741099928546
C        11.34947620975875   10.82050455778885    3.16790927461801
H        10.78691543601930   11.61785088744133    3.62621591904719
C        15.76619541662167    3.99588613550598   -0.87799893582159
H        16.24066985436959    3.31630616039929   -1.57090879294689
C        15.81299591609390    5.36038814246354   -1.10119727746641
H        16.32685680972433    5.74901711309514   -1.96884739994340
C        15.20313236135780    6.23088106537091   -0.21554287114878
H        15.23340936043361    7.29557071797908   -0.38789658254695
C        11.75794233170233   12.36034716129715   -0.10231756794230
H        11.29572591328359   11.62648387783089   -0.77708865848447
H        12.85123023365190   12.27604965591991   -0.17730823888002
C        11.32416008688945   13.75605913538517   -0.45947069673602
C        12.09317232845030   14.83913957827897   -0.05575068342798
H        13.00523014610013   14.66751412576925    0.49590357802366
C        11.69149430521014   16.12937291445757   -0.34973697750683
H        12.29757940005611   16.96466512749572   -0.03171754114647
C        10.51824002947555   16.34861994310882   -1.05153901197615
H        10.20555368364155   17.35594533351858   -1.28441248981056
C         9.74570454531626   15.27256498059504   -1.45363979143149
H         8.82850544324125   15.43923592838094   -1.99935394130535
C        10.14530496673611   13.98129718357202   -1.15603665161895
H         9.53872716097773   13.14304877937719   -1.46740643085398
C         8.50808330788933    5.73055515949630    6.65853883229153
C         8.64855562541418    4.47216012558778    6.07509422733073
C         8.09939015857640    3.37932253008579    6.73365178732384
H         8.20859643274943    2.39984306826976    6.29128730746642
C         7.41247805554961    3.51869756859653    7.92826893723294
C         7.26153609128121    4.78943948418773    8.46864621008519
H         6.70889889116193    4.91269086507124    9.38924514120945
C         7.79006429841692    5.90833533029509    7.84583614032225
C         9.35673964501783    4.28486943175105    4.77233460310534
H         9.01606535240913    3.37724620044491    4.28080076438802
H        10.42975691072489    4.19359248765847    4.94012222433248
H         9.19735612619430    5.12914973301352    4.10395805038087
C         6.81233170395328    2.33201059183967    8.62104900236000
H         7.12750161224342    1.40403884415808    8.15005555945293
H         5.72456566765113    2.38506974977374    8.58033811570054
H         7.10133632357730    2.31097629518565    9.67120787129529
C         7.57771407046353    7.27609788555712    8.41502727206255
H         7.07922036488391    7.92165857019608    7.69164999216061
H         8.52518742899065    7.74767105936831    8.67372824556915
H         6.96875292265432    7.22694243016747    9.31317506422255

