85
CSD_code = TAJKEX | q = 0 | S = 0 | Stoichiometry = C38H40Br2N4Pd | MND = 4
Pd       -0.00013972807727    0.00023428843950   -0.00017949749873
Br       -1.67247773626539   -1.79246082274307    0.36148156693500
N        -1.25920847709451    2.14365427837252    1.69953145380382
N        -2.53571201282274    1.62140014252126    0.04773544033017
C        -1.33588273948784    1.36732605425960    0.59958955504710
C        -3.21531263356652    2.54360393142900    0.79998855736456
H        -4.19672217112156    2.88196687643501    0.53867093641229
C        -2.41436059136494    2.87118659041445    1.83942341754753
H        -2.57625406851708    3.53113594139423    2.66645643824750
C        -3.00059067285765    1.07108730465916   -1.20123553875093
H        -4.06465014064350    0.83403482262877   -1.11152449498368
H        -2.45820432157592    0.12857495259074   -1.38352130981491
C        -2.76283628464656    1.98735406492212   -2.37682017576095
C        -3.61025343014999    1.92375131146503   -3.47528586619793
H        -4.45294773669295    1.24698759089057   -3.45919909889622
C        -3.37516603563631    2.71216549617698   -4.58711158898017
H        -4.03977180533173    2.65324196051878   -5.43678829933446
C        -2.29165349514835    3.57466141170882   -4.61152183314729
H        -2.10863899227563    4.18974145406966   -5.48002785164318
C        -1.44320105471326    3.64248718344153   -3.52036974278304
H        -0.59106008301449    4.30517928827967   -3.53231965706639
C        -1.67669816850605    2.85145313157132   -2.40931141501296
H        -0.99590668501275    2.90708215776526   -1.57049668844077
C        -0.09382664895926    2.29299167009159    2.50498008734883
C         0.58473747735352    3.51630817924073    2.48434479669882
C         1.74250659649326    3.64007900021468    3.23284934017951
H         2.28051032322922    4.57639880405707    3.21279680785260
C         2.24756422931392    2.58342174764559    3.97979770076687
C         1.55783436020271    1.38360715283472    3.98137209613183
H         1.93727020314086    0.54450276945069    4.54792110841489
C         0.38373702427004    1.21901220001295    3.25652822175578
C         0.11397898030578    4.65394583609035    1.63000692370934
H        -0.80699802089087    5.09118267651232    2.01405032114679
H        -0.06795397804749    4.31093635348370    0.61281902080708
H         0.87272141893191    5.43022120028527    1.59302333327070
C         3.52251283678573    2.74732566663132    4.74850230052735
H         4.34696745714568    2.94659646010647    4.06511786487054
H         3.75125228911193    1.85082092512036    5.31899422726560
H         3.44833158532096    3.58999056446516    5.43416843915247
C        -0.31823133336049   -0.10317825689313    3.27612980102596
H        -1.40180236103805    0.01122035041534    3.24720942631212
H        -0.04514090825758   -0.66937867368204    4.16347361941819
H        -0.00997170826715   -0.69718577373723    2.40064547445754
Br        1.67224328932229    1.79298376721033   -0.36187913835125
N         1.25903402307835   -2.14367810774249   -1.69932409791145
N         2.53535526892852   -1.62086354454226   -0.04755786092327
C         1.33552140025547   -1.36710516621244   -0.59953997075418
C         3.21512380392545   -2.54317429807171   -0.79952658832667
H         4.19655250638028   -2.88135992691793   -0.53805025878103
C         2.41428889988141   -2.87109994445908   -1.83894443964935
H         2.57636207815792   -3.53119683184748   -2.66582420249572
C         2.99999224035927   -1.07031002147553    1.20140496041142
H         4.06389261802537   -0.83254797057151    1.11166829973974
H         2.45697913910050   -0.12817887632928    1.38380900977834
C         2.76282090700660   -1.98690981010281    2.37682783099923
C         3.61078749119554   -1.92385022899629    3.47488757490478
H         4.45353224818920   -1.24715239725620    3.45868973632067
C         3.37617594625209   -2.71274142528258    4.58648196864698
H         4.04121786504462   -2.65425948473157    5.43584674282797
C         2.29260385081654   -3.57515256239225    4.61104786405538
H         2.10998251884445   -4.19062036148689    5.47936112521893
C         1.44357767284907   -3.64240425648056    3.52030070616298
H         0.59137853023544   -4.30501828105102    3.53238143579138
C         1.67659790250880   -2.85090313427058    2.40948687934808
H         0.99539610150694   -2.90607340153751    1.57097086034453
C         0.09377213535528   -2.29315216328912   -2.50491228914089
C        -0.58456968739020   -3.51660360235325   -2.48456379293852
C        -1.74232002979917   -3.64040585285445   -3.23308481217487
H        -2.28014599153860   -4.57683287642325   -3.21326883460984
C        -2.24762621956173   -2.58365869547260   -3.97974435927941
C        -1.55809891856279   -1.38373763823719   -3.98107135201499
H        -1.93769351720940   -0.54455165452075   -4.54739276619362
C        -0.38399637963935   -1.21910745311130   -3.25623691704756
C        -0.11371981033176   -4.65433427358209   -1.63039876346920
H         0.80778307270391   -5.09089601947274   -2.01396336988670
H         0.06730155885471   -4.31161114793324   -0.61293567136167
H        -0.87204441064000   -5.43107267713067   -1.59426822601196
C        -3.52254216748791   -2.74762307215865   -4.74847977863819
H        -4.34672482484947   -2.94883310929459   -4.06525182294699
H        -3.75223412249603   -1.85039927475062   -5.31755429886890
H        -3.44757877619950   -3.58916440616644   -5.43554513652636
C         0.31768699408183    0.10324069430072   -3.27570506916451
H         1.40127286878052   -0.01087266475537   -3.24615112406396
H         0.04496617731954    0.66917156250270   -4.16334174746900
H         0.00874498848723    0.69739232569783   -2.40054352403932

