85
CSD_code = TAJKAT | q = 0 | S = 0 | Stoichiometry = C38H40Br2N4Pd | MND = 4
Br       14.42788831855896    3.61717222565464   39.63522521215937
Br       12.35494458913543    6.45781254751722   39.42365719580843
Pd       13.70001610387117    5.13768739265092   37.84541318115562
C        14.50238080965665    3.86003738714100   36.53687255814782
C        14.55661751970433    2.13757961215615   35.11913631228202
H        14.16220931224585    1.41001096147529   34.44066997923642
C        15.80766309070060    2.32247221742459   35.59413530535463
H        16.71554855196441    1.78958048595534   35.40260556687906
C        13.38748725541771    6.57373334514486   36.49270751623598
C        12.46786275439266    8.23731533416327   35.33350624423824
H        11.67510843363579    8.80854010932620   34.89742483405022
C        13.80212779622182    8.44792689007093   35.35448586562212
H        14.39628801789858    9.23876082685715   34.94601978056766
C        16.90929044156997    3.94188389978910   37.13229458509098
H        16.55164262205962    4.44876378967607   38.03902060259724
H        17.37246610931134    4.68527317547650   36.47459106015163
C        17.91141262302063    2.87908637922074   37.48996888283402
C        17.59989863622158    1.91767449199158   38.44386521522717
H        16.64514952379964    1.95466885636179   38.94625670570414
C        18.51643898327362    0.93086542830251   38.75881809620108
H        18.26786086583850    0.18974315498037   39.50316593282564
C        19.74913314235372    0.89675592245661   38.12796862694130
H        20.46483044682781    0.12690274449822   38.37601379499215
C        20.06556211824936    1.85521226304420   37.18049921618214
H        21.02722200208224    1.83480090773532   36.68848656176858
C        19.14817220600839    2.84083706716859   36.86009830853866
H        19.39505837541846    3.58831380064913   36.11812598809772
C        12.39727526330714    3.28495052871727   35.34678955542052
C        11.36651459564160    3.03480942988415   36.26057876715762
C        10.05396836398229    3.17292308143178   35.83008677435978
H         9.25392121985037    2.98159576287027   36.52979166336438
C         9.74209160066661    3.55036170606708   34.53180367306329
C        10.78245953966647    3.80354098975629   33.64980257491944
H        10.56259968102726    4.10581569199691   32.63549131357954
C        12.10991167681205    3.67556596985504   34.03604894511143
C        11.64109566600801    2.64436240140311   37.67634206929023
H        12.52395748079188    2.01021518786485   37.76103356370411
H        10.78968888598531    2.11985996834678   38.10286424158233
H        11.80412498972804    3.55033467185977   38.28775565070400
C         8.31217500799269    3.69441571530278   34.11262758281271
H         7.78228982578852    2.75329780914900   34.24969161037826
H         8.23642599547546    3.98650336170748   33.06829488921702
H         7.81433523377730    4.44584156262561   34.72464139275974
C        13.19616994301409    3.95706053322518   33.03985082767815
H        13.44190815375471    3.05555847007560   32.47829506471128
H        14.10437984140660    4.30694135441594   33.52535187613937
H        12.86731123539643    4.71063224454224   32.32745169051940
C        10.92854603066420    6.47352667023362   36.18489604147141
H        10.95252767062509    5.86041227171497   37.09608313218773
H        10.74753279992671    5.81857892492147   35.32585896348576
C         9.83936908307224    7.50607959275450   36.27961184227502
C         8.92422589461964    7.65573780691725   35.24609885490165
H         8.98992317209085    7.01660275941629   34.37576608804171
C         7.92844623539948    8.61352990602762   35.32713566603902
H         7.21821873538572    8.72067282586995   34.52005521047683
C         7.84551276763904    9.43285394445558   36.43999089104781
H         7.06913086622976   10.18102665310560   36.50228917135224
C         8.75651234200919    9.28745582542219   37.47319930492378
H         8.69138709035903    9.91983242460298   38.34551138047922
C         9.74995515692528    8.32808271947666   37.39647921976773
H        10.45122432795224    8.20397593745742   38.20777007979611
C        15.76515881362485    7.23736816376163   36.19775510399216
C        16.50749992384614    6.99330681525824   35.03913121998679
C        17.88845951694742    6.88581026598135   35.13739675940522
H        18.46077372218654    6.69774289916761   34.23983223925951
C        18.54226917470300    7.01706788031231   36.35368809873932
C        17.78151966676941    7.24873087744034   37.49081417309830
H        18.27685810611067    7.34350663370059   38.44577203067781
C        16.39896376159084    7.36162054580691   37.44007007401855
C        15.85327472343666    6.84766573658717   33.69625065750918
H        16.41707108033502    6.15250646457343   33.07723920420669
H        15.82832633150019    7.80692427914276   33.17841385759751
H        14.83050775606728    6.48811601227695   33.78493055468918
C        20.03122751162414    6.89845247487408   36.45619289042181
H        20.45584849569236    7.81975518932377   36.85200799444516
H        20.47772352693560    6.70043648639120   35.48492534349665
H        20.29880502207206    6.09188657906402   37.13800241934504
C        15.63135113985216    7.59307026550913   38.70078845887765
H        16.26494086207313    8.04607115141008   39.45923914046045
H        15.28011208100257    6.62669355057554   39.10573674666865
H        14.76344214052398    8.23286857127485   38.53885402463614
N        15.75464324422060    3.38319151767636   36.45967839441803
N        13.76158366173931    3.09289437654903   35.70614736875663
N        12.23361243251763    7.08355939864208   36.03421059554213
N        14.35813028023921    7.41448794654691   36.07024994726275

