28
CSD_code = TAJLOF | q = 0 | S = 0 | Stoichiometry = C9H7N2O6ReS3 | MND = 6
Re        2.82877717894263    3.10034878870418    3.54062825448053
S         2.18870000187828    5.59300069118155    3.24883194123017
S         0.76277188840803    8.25396189777786    3.03313494819707
S         0.26870820591929    3.45336151807051    3.81046342863901
O        -3.11850799261479    6.01951740814660    3.75271914489049
O        -3.97413222969775    8.08839794044882    3.50649199870114
O         2.80283293796384    0.03012747486594    3.99701939240465
O         2.02548657335647    3.04670847383191    0.55310649318333
O         5.87362139421755    3.48388455557007    3.08426393614088
O         2.80489104461947    3.93128362892558    6.52094337968687
N        -0.47581603014567    5.92852612246479    3.51331578923857
N        -1.78096686030134    7.83508724799625    3.34860777166240
C         0.59806362674080    5.09449243714268    3.51647371548997
C        -0.51658347953029    7.27107517825831    3.31023369534580
C        -2.98763885531789    7.20587171179466    3.55514126370070
C        -5.30051896523734    7.57278768114631    3.70377241332202
C        -6.26671053193080    8.73999485375295    3.68746598957014
C         2.84992424721245    1.15804294726477    3.82661617783192
C         2.39695095404876    2.99054785102774    1.62251757561685
C         4.75959340215415    3.30541613658949    3.25851689867662
C         2.89599574014970    3.55845041090977    5.45455571640845
H        -1.39552202079224    5.48944151427363    3.67807019454779
H        -1.80427853893513    8.83638147984441    3.19592737067124
H        -5.51939408459206    6.85882890607988    2.90324288928484
H        -5.32991507606590    7.03789851641245    4.65836630108120
H        -6.02634284261298    9.43862133691646    4.48354874254652
H        -6.20936652755158    9.26171942964920    2.73661915917278
H        -7.27812316028665    8.37302386095377    3.83060541827701

