43
CSD_code = TAJMIA | q = 0 | S = 0 | Stoichiometry = C14H21IO5PRe | MND = 9
Re       -7.98299814470910   19.63206122659507    0.07701161669293
I       -10.20219230123197   18.99106211847461   -1.51003470795198
P        -5.77348806294095   20.63359209321105   -0.19453283603243
O        -5.44854734092944   21.80972774636625    0.62702007008280
O        -4.83499269895478   19.34421920281855    0.08309083902878
O        -5.42358330219109   20.90761042494368   -1.75638308406415
O        -8.35324225440911   22.45843485703496   -1.08961343845636
O        -6.52746764139650   17.98892454007776   -2.09405814524632
C        -7.11530286834617   19.40048808008756    2.27813319330599
C        -7.63553415905358   18.11464749676296    1.91041776715948
C        -9.03668848885402   18.24228170927631    1.75166381619769
C        -9.39527698761204   19.63380835892577    1.98073000000051
C        -8.21294268076872   20.33923661554056    2.30449423967692
C        -5.80181008566350   19.64690624828610    2.92739081262679
C        -6.85953347287533   16.83523855157823    1.94791357379141
C       -10.01087136035465   17.12017082174848    1.63146880074337
C       -10.79899691233807   20.12624022619609    2.12041426044712
C        -8.09377009854707   21.73343530560258    2.83013454809927
C        -3.43424911438710   19.57670630003035    0.15492909139203
C        -5.41946532390264   22.22497049560717   -2.28277683596098
C        -8.24785505402817   21.38875494389550   -0.70386464503217
C        -7.08525322782915   18.60412891897701   -1.31609328604284
H        -5.08835959432798   18.85841410579204    2.70176296809153
H        -5.38456705911466   20.60346479272983    2.62014600056652
H        -5.95181678622386   19.68170286017585    4.00987023219240
H        -7.35184736982554   16.05928095264398    1.36459009220837
H        -5.85635117469988   16.97974674689791    1.54887225972916
H        -6.77303958195940   16.48488154285551    2.97874610347070
H       -10.93927042553569   17.44441181061011    1.16623745539061
H        -9.60314365950431   16.29944755367475    1.04371892556687
H       -10.24305299611868   16.74179010359710    2.62955503987106
H       -10.83807406737371   21.21336152080853    2.10097892138967
H       -11.43573102342139   19.74802258569511    1.32110291888698
H       -11.21186628966613   19.78211946420293    3.07073848780003
H        -7.20270642592598   22.21449862748343    2.42799431764181
H        -8.96092002448847   22.33509419145923    2.56501865132552
H        -8.00695969716343   21.71119988779052    3.91826474638502
H        -3.01284619792669   19.65567610429000   -0.84821292933047
H        -3.22735938678781   20.49781601675708    0.70494764124113
H        -2.99450784255742   18.72499390989940    0.67389503259237
H        -5.35309750122683   22.95587133668628   -1.47431924353433
H        -4.54777964548665   22.31367315685948   -2.93181846471125
H        -6.32714166934324   22.39468644705313   -2.86394480722977

