47
CSD_code = TAJNEY | q = 0 | S = 0 | Stoichiometry = C16H24Cl2OSi3Zr | MND = 12
Zr        3.85004401509803    1.35320922390704    1.38663754070398
Cl        5.26270620608711    0.28600318459519   -0.16076771818495
Cl        2.49218520192142   -0.53576508907454    1.52314369557525
Si        2.44463997548270    1.57468302809590    4.65741491279437
Si        4.04367415308192    4.34865470595184    2.63079257654051
Si        0.65909806501715    2.68459922676485    2.25627020568286
O         1.40849294086763    2.41018634761063    3.69309293945877
C         4.07863317626390    1.55857074907526    3.73178820357145
C         4.77967922769609    2.67620075218186    3.15442781808401
C         5.94902274228996    2.15503804522717    2.53770687870099
H         6.72710823605192    2.74093288051938    2.06161617124581
C         6.01776935158341    0.76935877648887    2.77931863218608
H         6.84058573954689    0.11839904014713    2.51174733323949
C         4.86751266931477    0.39829283751228    3.49591041833975
H         4.66129166617610   -0.58915104605706    3.89463100479463
C         2.55787981103703    2.55594415279279    6.28732705315346
H         2.97986434794540    1.93923523142998    7.07314751278996
H         1.57320846738292    2.87478629973531    6.61115053002415
H         3.18071935384065    3.43847395753101    6.19479201617548
C         1.76786220151541   -0.17597918132327    4.96280464634374
H         2.39002727792389   -0.72383444594150    5.66296707774292
H         1.71434281166862   -0.74732206676491    4.04068076309250
H         0.76759157050714   -0.13022368716780    5.38192769889766
C         5.45734764198677    5.53581352801121    2.12827237155651
H         6.14113427103939    5.09681963329832    1.41017194411768
H         6.03767742367624    5.82735821216624    2.99676885811920
H         5.05580373741129    6.44119184209152    1.68651054393342
C         2.94969738948476    5.27919595649761    3.87615903319841
H         2.11932732974948    4.67824451450025    4.22049672294276
H         2.55348488555416    6.18277827138349    3.42530427350065
H         3.53532716398355    5.57918569491711    4.73860827640243
C        -0.53103635678535    1.25343382202203    1.86681972419686
H         0.00326143060419    0.31677294929328    1.73724280989224
H        -1.09764346989616    1.44594451365835    0.96163231175394
H        -1.24315132455387    1.11886533313341    2.67491891111148
C        -0.29034979966283    4.32434901846969    2.46110404393715
H        -1.03549458369568    4.43169710038875    1.68065464106835
H         0.36293478099983    5.18803497933143    2.41021609669333
H        -0.80550945885529    4.35128854893867    3.41503364173003
C         2.04290047198352    2.82608204115653    0.99443966790842
C         3.22602514161348    3.64410705432824    1.06626431869519
C         3.97874384120390    3.38416054360108   -0.11056556281890
H         4.89815880110106    3.88278357014481   -0.39573824695349
C         3.26146546232789    2.48871994617386   -0.92697231367073
H         3.54049758329103    2.17796010450644   -1.92591504689356
C         2.08433842687175    2.13271155376697   -0.24736081866345
H         1.28712000226814    1.51340834498416   -0.64419411270859

