29
CSD_code = TAJNUN | q = 0 | S = 0 | Stoichiometry = C10H6N3O6ReS3 | MND = 6
Re        1.13203484355140    3.48855211167750    8.47310630128714
S        -2.11355934671644    4.44351107315005    9.92896899025018
S        -3.29012174606534    5.38987652300262    7.41281660953312
S         1.00854242989047    4.05629485772157    5.89795733117863
O        -5.23065428465832    6.37688025534952    6.03047703824131
O        -5.15787839835354    6.74814111150843    3.80552278329470
O         4.00005441275308    2.34508250805877    8.72755138919162
O        -0.13011552538896    0.82802680748749    7.50618684808550
O         0.46581872400369    3.11705486085638   11.49263356425712
O         2.00667300410041    6.45561341759490    8.66845582268343
N        -1.39948283663282    5.03569321837939    5.48872889059761
N        -3.36891933929727    5.90150172148724    4.80440281532936
N        -0.77316032100215    4.36963795883825    7.69893056014160
C        -0.53471113095816    4.53777353975130    6.39111996673383
C        -2.58323611363487    5.42123371290155    5.80606825038381
C        -1.90766919636307    4.68078846522505    8.31885523366866
C        -4.66776019454715    6.35493285991073    4.97038111235873
C        -6.50521266741396    7.25133418026182    3.81373438477887
C        -6.71905267713632    8.05816925320339    2.54822955167668
C         2.93670292901352    2.75878963250300    8.68535959326855
C         0.36421646068872    1.75517610690123    7.93172499323030
C         0.65562127526037    3.27658535787628   10.38075187419994
C         1.73174237888833    5.35593730758647    8.67348413048505
H        -2.96225391933700    5.91797167094167    3.87613096918712
H        -7.18925769586192    6.39769607828255    3.86126047562929
H        -6.64710261179030    7.86024182405447    4.71198028826573
H        -6.03280405022282    8.89992343577863    2.51564819611731
H        -6.55049462594228    7.43616820607010    1.67361468949966
H        -7.73835978369323    8.43131195166527    2.52731735011767

