61
CSD_code = TAJQOK | q = 0 | S = 0 | Stoichiometry = C24H26FeN2O8 | MND = 6
Fe        4.24665526370832   -0.83200349854191    8.41802516955902
O         1.51159644424058   -1.01133246269370    9.39047397182830
O         5.35953361241728    0.43176731910850   10.77703947158954
O         4.75005193675331   -3.64646898321088    9.03250643531248
O         7.56367976271024   -2.51322330240203    8.08839807892184
O         7.68535757436104   -0.96008724815607    9.71083670336482
O         8.02167425537621    1.04530954755708    5.35451061654781
O         8.80113814157003   -0.03603116515092    7.16948989053242
O         3.17982423722022    1.77662017309188    9.00109104416934
N         3.87045670097285   -0.86838188732059    6.37943949840106
N         4.57734103188436    1.77776044370030    7.24889070190292
C         2.56861269324363   -0.94768244362036    8.96960061789839
C         4.90636117861077   -0.10364025335974    9.87786413049017
C         4.55031616697451   -2.57449318669392    8.69962061524514
C         6.17063663426585   -0.59447571731890    7.96308836941569
C         7.22233608053395   -1.45373399004366    8.55611904577368
C         8.67450534707565   -1.73736617233264   10.36872446153748
C         4.28484763504546    3.17861018660799    6.94695532070885
C         5.58539926636881    3.97875340935368    6.88717778206568
C         3.94758437413131    1.16335398525488    8.27799183674616
C         6.48986856551395    0.26081573713450    6.98204645843192
C         7.83214668676385    0.46995168090511    6.40358868418619
C        10.13663669724655    0.03466995813100    6.68889430580955
C         5.37219181007664    1.02582729356672    6.29896718209910
C         3.42112914239270    3.29852474913236    5.67831335631888
C         3.07551130440120    4.75609806534329    5.36475925093954
C         2.22006341354947    4.84891888891567    4.10317761742211
C         0.93905263403128    4.03597149700298    4.25236038585627
C         1.27397359898046    2.58341195499680    4.57338618222738
C         2.12263096915927    2.50243130123979    5.83755003946669
C         3.07443544968142   -1.76862390419039    5.79624008296723
C         2.89823516429073   -1.84753204139787    4.42919264455000
C         3.58877503501754   -0.96299690095416    3.61193014127455
C         4.40809518821046   -0.02426419597276    4.20933802974045
C         4.51366923788646    0.00423172746649    5.59448433815176
H         8.80023583433133   -1.29800671683400   11.35504215349747
H         9.61206410553109   -1.70081216256792    9.81024315966940
H         8.34895404616764   -2.77688028648001   10.44602849150436
H         3.69479877428542    3.52252481521821    7.80443835417872
H         6.24343299729832    3.65889414690165    7.69200215054131
H         5.38149892783869    5.03722890810327    7.01905917906644
H         6.10505406545130    3.84305149879606    5.94116572501989
H        10.16158095218933    0.57020135200298    5.73792157729916
H        10.50533982162453   -0.98342144932669    6.55805874709000
H        10.73835751203583    0.55729748886332    7.43282840724655
H         5.81177108892933    1.71192204521323    5.57445224918047
H         3.98038649209607    2.89081044656947    4.82766701294773
H         3.98645641829979    5.33743901784212    5.21919233384651
H         2.52996902447131    5.18436420373840    6.20808887771105
H         1.97641759168911    5.89402478398455    3.90208120909079
H         2.79096966481086    4.47034289930260    3.25157778738450
H         0.35180866768701    4.09194424599252    3.33343819548312
H         0.33693448183228    4.45366119902444    5.06180241844413
H         0.35556345722766    2.00860559200502    4.70887338401300
H         1.82373447879930    2.14131948575328    3.73750031352324
H         2.34168293093473    1.45641754648429    6.06451147029008
H         1.56122987795071    2.90493430258349    6.68288094276135
H         2.56078848907835   -2.45126983243466    6.45927718599481
H         2.23964205696374   -2.59264153925566    4.01331438156578
H         3.48608384538844   -1.00425128113980    2.53856218707817
H         4.96862116241983    0.68330872451458    3.61881964412222

