51
CSD_code = TAJQUQ | q = 0 | S = 0 | Stoichiometry = C20H20FeN2O8 | MND = 6
Fe        1.96433773640822    2.71482864578494    2.76799033997119
C         4.33588724039994    1.84499795804788    4.37132929753239
C         5.05109429144206    0.95962605588729    5.15462146552710
C         4.36984307896280   -0.04197076196244    5.83126884990095
C         2.99014818843505   -0.07700858533895    5.73146946918142
C         2.34005866277602    0.86359596250321    4.94446831976259
C         0.84074739264629    1.03581286828509    4.93663417187136
C         0.41471148064139    1.74073338634368    3.64740224161052
C         0.37685732029582    3.15962215144970    3.97138327946652
C         0.51014454463943    3.29406443753040    5.46225683118142
C        -0.65961523834803    1.19005337105096    2.80418920449217
C        -2.27262099748923   -0.47792128301983    2.52789446652953
C        -0.75434361850176    4.00872816863194    3.45858187337509
C        -1.34124095897719    5.80997076513151    2.08711505064159
C         0.61618832896235    1.71971308828217    7.38758203233498
C        -0.70725337735836    2.17315107077355    8.01855026185738
C        -1.91380526499935    1.53200545719328    7.34353849275659
C         1.81358601390681    2.36030098874697    8.08983160882978
C         1.13009968016184    3.26221114237670    1.31561595092876
C         2.84819890372757    4.27054567516439    2.79247294670347
C         2.67527007222115    1.54789410514859    1.63985100457701
N         3.00709333754832    1.79481271058398    4.24018127981352
N         0.60929556880754    2.03219860844757    5.97036052031821
O        -1.02482172467930    1.70796459055895    1.77190907501573
O        -1.19754618543348    0.05816860932937    3.28745728221861
O        -1.90086059975442    3.85032542738194    3.78620994584170
O        -0.33315542704231    4.96990482481079    2.63608829489930
O         0.48526658860539    4.31525762665877    6.11276574161011
O         0.74068862900301    3.59004138045300    0.29724666056483
O         3.36243720547235    5.28895590407154    2.75941932484548
O         3.09974055036594    0.82656165214951    0.85692809683333
H         4.84025809104204    2.62236725878404    3.81512519214200
H         6.12318999711149    1.04750067122485    5.22296161198228
H         4.89918787905870   -0.76735029584416    6.42932760135454
H         2.41498408881001   -0.82543672722053    6.25363552742495
H         0.29869369394647    0.10833399568652    5.13487102771597
H         0.68723822966710    0.62769541466730    7.46443330857990
H        -3.09850723199920    0.23477174930092    2.49258127637986
H        -1.94618183873400   -0.68937839089308    1.50762185319830
H        -2.57552185345650   -1.39148233391491    3.03348140969845
H        -1.97909732380838    5.23185857471849    1.41552524732460
H        -1.95390109562582    6.23318218427589    2.88536898896174
H        -0.82167892540745    6.59332086500764    1.54155526333802
H        -0.69023632271751    1.91058642621175    9.07810307514161
H        -0.77555737830298    3.25755159620923    7.93494808687764
H        -1.97579647496190    1.83512525426275    6.30104308401100
H        -1.85237981305908    0.44541350017610    7.38901811549632
H        -2.82885436166300    1.84450658087236    7.83983580009700
H         1.75582688613359    3.44013016762340    7.98685530461616
H         1.80734111680303    2.10520845165304    9.14621099644578
H         2.74916121431367    2.01584905475173    7.65208384821942

