76
CSD_code = TAJQIG | q = 0 | S = 0 | Stoichiometry = C33H39ClNPPd | MND = 4
Pd       10.14921186030595    7.35942490774493    4.83358358468811
C        12.12196119523675    7.11925034760862    5.22732645103556
C        12.74342455819085    6.67195158387279    6.39428778815361
C        11.96012502440055    6.35141501097619    7.63555743977616
H        11.45559437022738    7.23231884001872    8.03371114889038
H        12.61535415987640    5.95596821319194    8.40911991467389
H        11.20225134848598    5.59980878738230    7.40741669673292
C        14.11476822119607    6.44344231827946    6.39338654278902
H        14.60156350307987    6.12546337122021    7.30535013730294
C        14.85370313005322    6.57781700326415    5.23850788049589
H        15.91554610772831    6.37604000755766    5.25360602112930
C        14.24522937867110    6.91098989036207    4.03358180640252
C        15.12364124346943    6.90996165728893    2.81185661546713
H        15.75805841072560    7.79646901467094    2.80497437995640
H        14.56448565597142    6.88568432576052    1.88163640889164
H        15.77786506257663    6.03933641651000    2.83685915974486
C        12.87956653939971    7.20495065092102    4.04482872557649
C        12.07852909051726    7.46449953010794    2.77857949133301
H        12.60348877807680    7.03898858535448    1.90716864192364
C        11.92477914684097    8.99987017915337    2.47271727037163
C        13.26491202523602    9.68844639360682    2.78245513229247
H        13.16923544687036   10.75886967433205    2.61211266805169
H        14.05163843873349    9.31446090416205    2.13461228695463
H        13.56050283908039    9.53494630898047    3.81659873008681
C        11.65292661995844    9.25414791113525    0.98055303448437
H        10.63110398408494    9.03527266724315    0.69150229038338
H        12.32216113830790    8.66490771423526    0.35614111236467
H        11.83460454611281   10.30406857467254    0.75817917080119
C        10.85709787398798    9.71560032833217    3.31251622911130
H        11.16004877158418    9.73934849223760    4.36886301353551
H         9.85969987984532    9.26518321159429    3.21961512987034
H        10.77883841717372   10.74698230069708    2.96838712817071
C        11.15047772228463    5.24679484605756    3.07346323744107
H        10.23956852455160    4.69531119733295    3.31979527200958
H        11.89210894304763    5.06451513820791    3.85115732467693
H        11.54590840390820    4.86251036499724    2.12140659662487
C         9.90767473086048    6.78728383946445    1.82555601949495
H        10.42725180989758    6.56624221821022    0.88362235353380
H         9.45353539925130    7.77286461625630    1.77535282830299
H         9.09340471083708    6.07340987358364    1.95368801380903
C         7.79944954717557    9.26203617831887    6.40402129510107
C         7.94009945658678   10.45762472983243    5.70445922937501
H         8.92607865932885   10.76522220040303    5.37588326862503
C         6.83316347636537   11.23414758179621    5.42447607346636
H         6.94627890052103   12.15706935101264    4.87392511255037
C         5.57724306345996   10.82443595342322    5.84357318633112
H         4.70953953074475   11.42792561320928    5.62038637618281
C         5.43416833916875    9.63578379468435    6.53841841702218
H         4.45435179662056    9.31052171125318    6.85721321881967
C         6.53963249489758    8.85207556147941    6.81872322060202
H         6.42040631163967    7.91360778598465    7.34162607273446
C         8.75979819569296    6.97742804887590    7.81775036308758
C         8.61820403275413    5.71641116082000    7.23949058663418
H         8.86585250976478    5.58481338890480    6.18062917241560
C         8.16720628700658    4.65050980880160    7.99541358644998
H         8.04888026115632    3.67674327907852    7.54282357328343
C         7.87255354988744    4.83151553688551    9.33769951166811
H         7.52261104320782    3.99965401243927    9.93119326930104
C         8.03488449224626    6.07690527630255    9.92130370695146
H         7.81576052310195    6.21436691422602   10.97032022931576
C         8.47557601854364    7.15069972847452    9.16674541757331
H         8.60777942870317    8.11630625006364    9.63225902725890
C        10.20959840787843    9.54535473160240    7.68302280378620
C         9.54402120507975   10.32921704382334    8.62154031788769
H         8.48065865734641   10.20352301014538    8.77299477805411
C        10.23352068111773   11.28770033976095    9.34120993176723
H         9.71209761491654   11.88672785286667   10.07375462314992
C        11.58635343634942   11.48841874789362    9.11788050328296
H        12.12059226517770   12.23950651055687    9.68083171615571
C        12.24650558061586   10.73644453395059    8.16084379453439
H        13.29653114224462   10.90228431096844    7.96948489920190
C        11.56045290322748    9.77198185299926    7.44441941885658
H        12.06947691514223    9.18409831076682    6.69006973938651
Cl        7.87845156460103    7.31138118400383    4.15008774645348
N        10.82510157961332    6.67457904149684    2.95767022702954
P         9.31807311750191    8.29226144636368    6.68722190840743

