64
CSD_code = TAJTEE | q = 0 | S = 0 | Stoichiometry = C14H44P4RuSi | MND = 6
Ru       -0.12271738601719    3.40864156530451    3.73079231394794
P         0.75431889758283    5.12813894419185    2.50293112817707
P         0.89285801077529    1.78401514688751    2.40469129934831
P         1.47488937485582    3.40907745416825    5.42068794166714
P        -1.54184174449159    4.78325115609366    4.93269458262637
Si       -2.18708883913500    2.97451040641619    2.48509495156408
C         0.08642911045163    5.67043944595525    0.87673190457900
C         0.93273034986004    6.81057209271161    3.24026433486963
C         2.51091756677770    4.93703197597445    1.97174728369846
C         0.39998080129096    0.07031637210295    2.82942019965059
C         0.53763441369237    1.81325942998771    0.59554228365330
C         2.70934464984767    1.40691365815381    2.22315549401098
C         2.46893069489388    4.86413716860030    5.98686379774502
C         2.88083082096735    2.22172893004857    5.38754793679169
C         0.80401612626693    2.85132139207282    7.04084599274470
C        -2.77393029498772    3.93483363403352    5.99335948827865
C        -0.95143591182111    6.00263630141372    6.20041145896779
C        -2.66331879500963    5.94114924357698    4.04018119448456
C        -2.74954772625804    3.87991291560171    0.85788865968287
C        -2.75600777000603    1.18157871840565    2.00097687799421
H        -0.69823754145312    2.22622502919556    4.56201377442740
H        -3.46771790103389    3.24788737114993    3.25183044822878
H         0.00603336625787    4.81180316939546    0.21401009394923
H         0.73596970854671    6.42372742572131    0.42849199717354
H        -0.90945569248025    6.08494994174832    1.01875919236424
H         1.52950868436574    6.75141693850662    4.14824920856027
H        -0.04837996551314    7.21306465172168    3.48581552633982
H         1.42280462649189    7.47839473894821    2.53012694447940
H         2.89585384757659    5.87307612084780    1.56480007926617
H         2.56614726363404    4.16527906813766    1.20517827363604
H         3.11872485427005    4.63463868051732    2.82470804686488
H         0.73316887105923   -0.13598455772172    3.84695002123301
H        -0.68165747919255   -0.00686761513226    2.80395453646346
H         0.85066569077515   -0.64508236756828    2.14007962914982
H        -0.51517738463959    2.01014895685108    0.42141661412321
H         1.12533791349506    2.60706224511353    0.13348880010305
H         0.81195776062857    0.85801879822064    0.14632948451607
H         3.04133931409632    0.78961271064539    3.05411805028867
H         2.85379929569032    0.84797644105151    1.29853249832505
H         3.31750998146441    2.30640846170795    2.18829900040027
H         3.06635655456797    4.58943137443719    6.85656619119170
H         1.82500054615285    5.70093788075881    6.24520041858136
H         3.13577024133121    5.17196543634569    5.18161926845135
H         3.58984194216831    2.49711043614243    4.60958513919488
H         3.38963467226851    2.22315298997845    6.35263595011439
H         2.48822172925643    1.22606734779764    5.18781170161648
H         1.56523968742820    2.90760087825066    7.82046799018795
H        -0.06050055847873    3.44503848935995    7.32579274068402
H         0.47698145052399    1.81913955794668    6.91510595613576
H        -2.25907130662523    3.41531186023048    6.80024796219301
H        -3.29960757320924    3.19909291818415    5.39018174590535
H        -3.47950080716325    4.65633187287583    6.40770782600400
H        -0.32186456292406    5.51279709497543    6.94004067831497
H        -1.81580585355693    6.43660075605425    6.70505020075365
H        -0.38283925383315    6.79864464512331    5.72396427618133
H        -3.44979465526314    5.36926094409100    3.55722627254582
H        -2.10740754689418    6.47483663560546    3.27117550654799
H        -3.10093162109274    6.65551905796277    4.73788144633966
H        -2.85566633602609    4.95034792721912    0.99540804592788
H        -3.71934555417433    3.49388319481903    0.56397793775294
H        -2.07506585625663    3.71935056016240    0.02345841115974
H        -3.75940819872170    1.22965810672100    1.59131291557274
H        -2.79408867924227    0.52890549547397    2.86714184347887
H        -2.12773602382789    0.71329237871619    1.25135823079406

