70
CSD_code = TAJTOO | q = 0 | S = 0 | Stoichiometry = C16H48P4RuSi | MND = 6
Ru        2.04737360316965    2.78923388974512    3.63957792141245
P         1.06132726186176    2.51145208068601    1.51548363108689
P         0.17921415164339    2.70493301117939    5.07097377253096
P         3.66290686785353    2.77025074159373    5.30193064309746
P         1.86109866416207    5.14437334342117    3.46881698027272
Si        2.19026262999879    0.32588093646418    3.72377861296580
C         1.11748561714142    3.83323000151208    0.20928607235123
C        -0.71807803580813    2.07348911229682    1.28588672450007
C         1.76570442861366    1.21477092501988    0.42015986031882
C         0.03398836239202    4.05826585305693    6.32742815724513
C        -1.56746908257647    2.80712943638146    4.47321010666168
C        -0.10227672325572    1.31542095254764    6.24790559380136
C         4.51047819621121    4.34973584955787    5.75109490579565
C         3.34148691166386    2.22939102121045    7.03624579680482
C         5.19294335790428    1.79450304451618    4.99178038243526
C         2.12182681085679    6.42763952598742    4.78743922443900
C         2.88844053972314    6.04578271181126    2.22715942044723
C         0.17354105692891    5.73221227389412    2.97631286518905
C         2.60138349375274   -0.72601941411848    5.32477858557676
C         3.47355636090604   -0.64710626137666    2.61072290380133
C         0.54573189910141   -0.63997349108154    3.27853220029063
C         3.85240851606481    2.95305873724540    2.40411113620233
H         2.14334133538582    3.94513851220240   -0.13752502388666
H         0.75618591242114    4.79339228911812    0.56406150236702
H         0.50270789781190    3.51453172175237   -0.63296204855704
H        -0.91020820996349    1.83532718082524    0.23976290856633
H        -1.35663138366192    2.90231814105932    1.58549673365993
H        -0.95001138819140    1.20691203719064    1.89733810847317
H         2.83440073698008    1.38024900944986    0.31508883254208
H         1.29273867991371    1.26685424832638   -0.56120961043345
H         1.60732702510909    0.23468674171614    0.85353725397101
H        -0.25368127462215    4.98590736476699    5.83778477341890
H         0.99230436095483    4.20428027217011    6.82213502635626
H        -0.71961471296034    3.80245172710334    7.07277579663938
H        -2.24076318680453    2.92715351241564    5.32264168298048
H        -1.81863069001186    1.88921871479250    3.94711873952846
H        -1.69249647322406    3.64889853490775    3.79658203080625
H        -1.02849536756645    1.47773213801605    6.80061497010953
H         0.72851117614233    1.25890661318607    6.94559331132643
H        -0.16389296502443    0.37965759219280    5.70193386804079
H         4.78170715526491    4.89178295362752    4.84720360273654
H         5.41257180124033    4.13070848575635    6.32364989020837
H         3.84537354135100    4.96369672525932    6.35474027986409
H         4.24379028723560    2.35529603087520    7.63562414036558
H         3.04634923464185    1.18518121158649    7.04069234231006
H         2.54181127230906    2.82698386000846    7.47002199996291
H         5.82192599652917    2.33504026133202    4.28821340050257
H         4.94117060878327    0.83095803863479    4.56289047605817
H         5.73615082775379    1.65658909530657    5.92699182339910
H         3.18273588519414    6.64845636838869    4.87566158385817
H         1.75003878343332    6.10126132331099    5.75381010549706
H         1.59977511380002    7.33939966891517    4.49503757009345
H         2.58938047216496    7.09377414967962    2.18821418969740
H         2.80290217091087    5.60232932072785    1.24169809897173
H         3.93055609389034    5.98386003899982    2.53733784458550
H        -0.32427056755183    4.98160264456855    2.36697730016175
H         0.23619264617138    6.67232162626552    2.42714215104412
H        -0.42174727029896    5.88961754975877    3.87458695310305
H         3.58159874892460   -0.49820703053566    5.73030913657563
H         2.61257289529797   -1.77623252380144    5.04753146291573
H         1.87749626132328   -0.61651604112328    6.12415352040822
H         3.86041779925528   -0.08094992886336    1.77297230862128
H         3.00990984829007   -1.54465869714178    2.21375116007920
H         4.32615884505333   -0.96462636743613    3.20295880292221
H         0.52706045045536   -1.60435550561834    3.77621896239189
H         0.45573699358187   -0.82972470625995    2.21418617753403
H        -0.34500481222814   -0.09882039541682    3.58464726298038
H         3.65363350388469    3.31670400571538    1.38933035521870
H         4.39050672939141    2.01087555440333    2.29052417148319
H         4.56877232321299    3.66958165000479    2.82653857282623

