56
CSD_code = TAJTII | q = 0 | S = 0 | Stoichiometry = C12H39P3RuSi | MND = 7
Ru        3.35966567077154    0.26625392673533    1.95165202867416
Si        4.04458662854681   -1.22220177970080    0.06229715760678
P         1.43345231031283   -0.15818566133368    3.10908183649162
P         4.73952475280699    0.50641142894825    3.75999782354464
P         2.98354011556758    2.49181720955221    1.57731382713043
C         1.06844184135798   -1.92848873822159    3.42611466707027
C        -0.15319643232923    0.29204030534257    2.29341415548920
C         1.07507640566001    0.51132007683523    4.79347047973985
C         4.79278772709934   -0.88310068721329    4.96489353422400
C         4.62906272087082    1.90568410557745    4.96159160748398
C         6.53435863591946    0.59618242711979    3.38766172822095
C         2.02021831623621    3.57984426778737    2.71849922693680
C         4.45954710439050    3.56811849180606    1.35737488551458
C         2.12702152341072    2.90144366570289    0.00682630643661
C         4.11972005003236   -0.35418069551614   -1.66119419654008
C         5.79376476091093   -2.01774909758046    0.25623375579232
C         2.87984385214428   -2.73423347252125   -0.23314280503308
H         2.32348720065288    0.14122428478236    0.79189562895904
H         3.63038267463279   -1.22129841600643    2.33508067701272
H         4.66397239301709    0.68243140882033    1.20359918836884
H         0.09087511687636   -2.05489621750697    3.89371750642029
H         1.09746092885362   -2.44655727209349    2.46775098127998
H         1.84344994881366   -2.34817672391403    4.06692913266543
H        -0.21239675544457   -0.25432130552694    1.35219523963162
H        -0.17078973214918    1.35885864784251    2.07378470286828
H        -1.00406020462339    0.03421394109657    2.92516382766445
H         0.10399451656905    0.15827618371464    5.14151787418052
H         1.07471675227468    1.60014340997827    4.76402898081080
H         1.84680098320494    0.18042837942962    5.48745375105530
H         5.10764997168202   -1.77866044972099    4.42948479385953
H         5.49171886036550   -0.67127323191511    5.77497475476830
H         3.79933100320107   -1.05910864432953    5.37565919227421
H         3.64931731040098    1.90520946148430    5.43734172502481
H         5.40199839861795    1.80996225928034    5.72459421651019
H         4.76094174213178    2.84940041046127    4.43367977479193
H         7.12939591592004    0.61033561093635    4.30197037747431
H         6.78922278951105   -0.27590711234665    2.78581828015338
H         6.73708739680141    1.49057726433428    2.79917732867041
H         1.96612233453252    4.59266589264478    2.31841303558620
H         2.49947341856942    3.60245160447375    3.69644715533012
H         1.01140369502842    3.18495276078421    2.83254065566066
H         4.16497332292994    4.60182905726248    1.17219176614214
H         5.02775768964499    3.18785347317861    0.50866478783120
H         5.09127826666610    3.52107232966585    2.24353593648201
H         1.12317863151806    2.47786929724688    0.02134083874148
H         2.07296870150546    3.98020946377296   -0.14668107708329
H         2.68556379296850    2.43308658768801   -0.80334351410778
H         4.77032272482093    0.51483961870367   -1.64394123785086
H         4.50168167547913   -1.03816288751533   -2.41269968362620
H         3.13663873339565   -0.02505192158323   -1.98344668377588
H         5.88664956235812   -2.55853894069845    1.19314014220560
H         6.57699712902259   -1.26646008127382    0.22883977285579
H         5.98142192627607   -2.71959728650000   -0.55038753177698
H         1.84980745660068   -2.42360576252168   -0.37935011144401
H         3.18851037544043   -3.28213482472234   -1.11804301021052
H         2.90157736822588   -3.42291604272948    0.60587480581124

