135
CSD_code = TAJTEF | q = 0 | S = 0 | Stoichiometry = C36H80Cl2N12P4Pd | MND = 4
Pd        2.82737955693644   11.53502908428213    5.25476355059938
Cl        2.99498356936854   12.78587271337899    7.17814872640787
P         3.51926894125777    9.59068387481120    6.21445135602129
P         4.39806089066269    8.05526809964831    4.38489058323282
N         3.59653329857539    9.45050192669263    7.87405949901424
N         3.94102068783491    9.60307439725104   10.68141483493710
N         5.04637176616106    9.16847791580548    5.61838016251041
N         3.12431141901621    8.04914043875955    5.57479782415631
N         5.19118752556781    6.60966673142181    4.69649660862078
N         5.87447654698640    3.86197963724116    4.79395283134583
C         4.46107454244331    8.51815724416627    8.56138615722575
H         5.26771047351149    8.23238757089923    7.88559846447802
H         3.90030974622802    7.62152158439507    8.86070785514638
C         5.02695960779806    9.17787389203715    9.81755118607542
H         5.64238460365524    8.45507878175062   10.36004526867958
H         5.66192405120050   10.03438322298664    9.52726628990671
C         3.10737175170112   10.56347827550294    9.97782799582207
H         3.67659936252448   11.45858970187312    9.67610720927958
H         2.29538576486212   10.87269058332418   10.63954301663262
C         2.52389940163662    9.90991113248137    8.72988863675304
H         1.89343042934354    9.06311837748789    9.03771298603251
H         1.91355066774348   10.63385294293168    8.18346800285942
C         4.43145033720569   10.13689382036533   11.93256563532748
H         5.01623485146502    9.37164215243981   12.44179178263830
H         3.58290709228267   10.40350705108637   12.56079581009289
H         5.06163691957201   11.03007450131535   11.79713998949863
C         6.15480829984433   10.08031717865712    5.37146789581050
C         6.35043492227769   10.95360125460942    6.61033716572448
H         5.41858082829561   11.47731437420585    6.84168130853139
H         7.13401868423434   11.68802836879581    6.43614066805838
H         6.62628029841457   10.34235075879888    7.46579719662275
C         5.90274266145506   10.97760509748862    4.15615173541403
H         5.66643112390062   10.36432082902959    3.28608593705241
H         6.78130513937620   11.58161114635862    3.93847919329186
H         5.05388509852254   11.65296473314090    4.36142146800578
C         7.39403533449165    9.21820686918909    5.11381342292484
H         7.56407023333636    8.54528488139667    5.95105240252999
H         8.27250682596797    9.84460511867875    4.97974348704803
H         7.24239174305034    8.62287925397135    4.21497563688060
C         1.79917234334572    7.45913071563960    5.43018730822164
C         0.71371428226669    8.51897819394973    5.62803906512573
H         0.81715554421937    8.96766970288566    6.61849565055215
H        -0.27365604070980    8.06829946490373    5.55088257563208
H         0.80024020166516    9.29209539862867    4.86351828453629
C         1.63919460346638    6.38472336378011    6.51558929183960
H         2.38437009761556    5.60489146795626    6.38805558189737
H         0.64961118248201    5.93686559701174    6.46259607945557
H         1.77053845507896    6.82883410850567    7.50039979386569
C         1.67659147350115    6.82904463391067    4.04453656809357
H         1.77896783602834    7.59968302994331    3.28307001338483
H         0.71241271521792    6.33915475055039    3.92834178067459
H         2.46907850235820    6.09588136600741    3.90321647384162
C         5.94723864043755    5.99216069876009    3.63415589426702
H         7.02479720374498    6.07300366090224    3.83434086089995
H         5.71751485024452    6.50923427559473    2.69888676714801
C         5.59379459913448    4.51071325459473    3.52661377199094
H         4.52878605745146    4.40858442613532    3.24496274323055
H         6.20328266030364    4.04173789469581    2.75068483441111
C         5.07020700597633    4.46545574108001    5.84023625159661
H         5.29395914267576    3.96418566842746    6.78537445339730
H         3.99136182425421    4.34269125395200    5.62705636209455
C         5.39863731883710    5.95375168219206    5.96184572157109
H         4.75073995272061    6.42217736745862    6.70201496429298
H         6.44694447280230    6.05482538135156    6.27510411099617
C         5.67972892713277    2.43126987656397    4.72355734686151
H         5.94626398222755    1.98828107176902    5.68220826789552
H         6.33399558781593    2.02111798186522    3.95562388687766
H         4.64055984815289    2.15266335098536    4.48467422116147
Cl        2.65354648419934   10.28161835234489    3.33294621092745
P         2.13662485562988   13.47924109767594    4.29453782032878
P         1.25705623600667   15.01747717457701    6.12188613404982
N         2.06270012703819   13.61850802567823    2.63468151398073
N         1.72123773309828   13.46141318933653   -0.17298369794703
N         0.60927558600359   13.90316724586595    4.88887352579192
N         2.53298761293578   15.02049217731816    4.93404330716981
N         0.46768638888469   16.46473600372169    5.80728622282760
N        -0.21452501373584   19.21305776847527    5.70625650110197
C         1.20118080214564   14.55151776653784    1.94443068347104
H         0.39453270286916   14.84085866814790    2.61867892176289
H         1.76464063336944   15.44599955288322    1.64378039368499
C         0.63522075888456   13.89034117311858    0.68899558685467
H         0.02149708016621   14.61300523322213    0.14442094382295
H        -0.00134228495991   13.03551055878485    0.98059649005422
C         2.55219663429455   12.50074884235827    0.53337943646904
H         1.98087875793576   11.60731861887322    0.83610079166435
H         3.36439832757732   12.18864045482212   -0.12671948085398
C         3.13541342877201   13.15550279060303    1.78082008315655
H         3.76775415278292   14.00058526397616    1.47222961384422
H         3.74386341890692   12.43135816541222    2.32898379619305
C         1.23122373823038   12.92597085170737   -1.42361555448030
H         0.64855799488228   13.69127375625014   -1.93517072827881
H         2.08002707383511   12.65639495770175   -2.05023443562636
H         0.59918977082305   12.03426187959956   -1.28712544264052
C        -0.50053816165987   12.99259317013438    5.13441237638886
C        -0.70021558757419   12.12548940463947    3.89181442293628
H         0.23035277229470   11.60143059090425    3.65635793528993
H        -1.48457323849610   11.39142244318001    4.06399157526974
H        -0.97684512203506   12.74132265610742    3.03991397398392
C        -0.24943862902600   12.08856727864297    6.34509687368705
H        -0.01102202688711   12.69659628684856    7.21823250849610
H        -1.12997730300124   11.48639938286198    6.56011417539559
H         0.59684275678079   11.41102713073659    6.13618596433512
C        -1.73730026024706   13.85610206830610    5.39902872774011
H        -1.90726272981870   14.53453342021239    4.56625749290415
H        -2.61696301990835   13.23088818700007    5.53090100488029
H        -1.58273598987572   14.44556737916806    6.30129194413927
C         3.85956765970590   15.60686345688598    5.08204071353693
C         4.94248427896863   14.54467838926141    4.88267211072587
H         4.84036845502544   14.10022640461588    3.89019621723232
H         5.93090271118351   14.99230477210837    4.96418567693946
H         4.85197008124775   13.76878512521303    5.64395270495687
C         4.02435740517348   16.68384032759025    3.99992353077929
H         3.28244249377010   17.46645482024095    4.12937347005374
H         5.01580638185039   17.12734316180791    4.05505881854297
H         3.89197208769465   16.24334628478253    3.01363710260700
C         3.98232092996733   16.23292963179549    6.46950242583440
H         3.87831137789115   15.46055241285217    7.22895502833041
H         4.94726010885147   16.72092800341878    6.58741429555504
H         3.19102337648512   16.96710347921051    6.61228449873304
C        -0.29142523334862   17.08326641720160    6.86695064975730
H        -1.36840525240103   17.00252051507383    6.66363968075831
H        -0.06466264977304   16.56690595092557    7.80332191699090
C         0.06188362837087   18.56479314849264    6.97476681075516
H         1.12592400488004   18.66711020886301    7.25995866196539
H        -0.55021510591093   19.03413286521472    7.74843661829944
C         0.59280160038798   18.60857716037568    4.66291203566948
H         0.37229498088763   19.10940695121426    3.71677180827728
H         1.67102120350604   18.73088097103712    4.87941869411361
C         0.26389777425186   17.12034827422860    4.54110196710864
H         0.91334514464697   16.65137733769291    3.80263580272879
H        -0.78371249727371   17.01994678809593    4.22523783372104
C        -0.01947444607077   20.64375073933079    5.77661078242573
H        -0.28247617611238   21.08642196215565    4.81683608543505
H        -0.67627755699506   21.05455791761143    6.54203696609364
H         1.01892850288983   20.92215665648438    6.01902077223075

