48
CSD_code = TAJVEF | q = 0 | S = 0 | Stoichiometry = C18H27AuClP | MND = 2
Au        7.24637479363377    5.53758436971666   12.34459994757602
Cl        8.15361246464077    4.37182187320874   10.62616248251428
P         6.33629405514936    6.71401492128595   14.02078476043344
C         4.91838909676597    7.75079944756227   13.45882013185044
C         3.85676535183323    6.79688160318486   12.90747667113629
C         2.69400364376924    7.57243948284651   12.29695767624995
C         3.19671457583211    8.49907971136695   11.19467172613019
C         4.23647409136071    9.46600363300538   11.75138188507878
C         5.40632478974490    8.70260361258372   12.36653845754108
C         5.69305600622088    5.72900869982173   15.40249304716536
C         6.23917958889266    4.45911822098206   15.56886976677575
C         5.83186419681115    3.65426160318348   16.61669757552968
C         4.86813534189538    4.10950928061202   17.50160451112390
C         4.31233497760728    5.36780239787845   17.33460096699853
C         4.72090025379394    6.17917424543681   16.29151965029888
C         7.54869060831115    7.85592670380008   14.82956164326371
C         8.69568262508874    7.00052816675864   15.37070232800825
C         9.79002408846472    7.88685922964696   15.95684798452746
C         9.21729996149126    8.77489698504755   17.05752119954670
C         8.07473180136554    9.62642252220039   16.51308026463621
C         6.97297137344738    8.74252984045325   15.93084874236067
H         4.50304368277391    8.32830249077775   14.29345672384229
H         3.49540157167963    6.13893604331151   13.70332334960622
H         4.31679056757201    6.16582345841281   12.13927198638023
H         2.20145332179425    8.16313141300843   13.07382957097968
H         1.96038814441738    6.87290800972129   11.89294708832197
H         2.36192043749701    9.05706731420824   10.76703788846628
H         3.64640504003087    7.90279380977179   10.39823432195960
H         3.77359594507012   10.09750556951673   12.51443101478553
H         4.60453506663583   10.11727244322124   10.95674170287940
H         5.91122329550087    8.11889149715420   11.58927699802406
H         6.13019225982477    9.41098588132603   12.77792670506581
H         6.98114437307894    4.11009336489942   14.86128694494902
H         6.26176685593836    2.67165191853989   16.73981350407362
H         4.54511309694627    3.48230286659018   18.31882660601027
H         3.55624445834149    5.71961746472568   18.02116657397629
H         4.27733793677552    7.15672925467916   16.17052162591633
H         7.93638130433044    8.48483024067079   14.01522557567123
H         9.10189830998875    6.37945753470975   14.56576191323044
H         8.31347693680375    6.33364929721141   16.14953785538391
H        10.21371642000850    8.51158014474736   15.16733110249135
H        10.59168310238438    7.26415332116087   16.35736687946979
H        10.00010633696652    9.41961289163914   17.46059873980117
H         8.84605389091672    8.14855121512870   17.87211970772499
H         8.45689961615212   10.29008243824422   15.73377507977025
H         7.66055233599828   10.24874605920195   17.30889724639793
H         6.55927418962005    8.11449235040596   16.72393222375549
H         6.17227781683060    9.37296515643674   15.53711965231667

