81
CSD_code = TAJWUY | q = 0 | S = 0 | Stoichiometry = C32H30Cl4N8NiO6 | MND = 6
Ni       16.45501966508554   18.13314113042707    6.78313903294279
C        19.47880654284070   17.07980637579571    6.37438768218721
C        19.18664778862452   18.49669145543391    6.27181208340007
C        21.43432445629551   18.88622272506415    5.35942694319468
C        21.68402496311917   17.46028980910283    5.48195550693992
C        20.75611883093112   16.58788533807311    5.98775062345992
C        19.90561947165746   20.74683077961642    5.73908339113706
H        18.82882931266049   20.87792683064184    5.62288577667640
H        20.43370364497228   21.13216551550166    4.86465218812355
C        20.39999131888940   21.44731294878759    6.99705603553743
H        21.47787296773060   21.33636022184941    7.08506242938340
H        19.92106248485740   21.02572527270595    7.87762576740393
H        20.16095697025724   22.50548828243109    6.94458087112434
C        22.95131171595785   17.00547305378646    5.05974734416349
C        21.03579523625718   15.12650824298324    6.11264043888881
H        22.10588403346160   14.93782817879643    6.12390747416295
H        20.60811203328797   14.59304353737840    5.26320426043653
H        20.57593731279909   14.73668758200633    7.01719323439675
C        16.74052002657147   15.45652043944857    7.87682801987074
C        16.97356018550435   14.11889481881639    7.55490747749882
H        17.71098413556125   13.86736436721446    6.80983208285324
C        16.24707013000431   13.12084493139583    8.17690343557555
C        15.29896348800069   13.44296996399956    9.14720411710301
C        15.09418640541232   14.77318862705514    9.49326746016766
H        14.37551116420072   15.00990716237158   10.26207241167881
C        15.80356839353864   15.77303610267257    8.86280391886975
H        15.65098361341145   16.81138626620647    9.13060588316479
C        17.01279248306258   15.53759117141060    4.21331017870736
H        18.03030211929610   15.23319648961958    4.47689034840651
H        16.85878309067875   15.37824419673664    3.14145864999178
H        16.30459163385718   14.92706337353958    4.77040993786395
Cl       16.52014174392613   11.47602188946490    7.74195737317406
Cl       14.38332072800769   12.20600934074876    9.91646285001775
N        20.16757198904348   19.31220966065462    5.79959123944281
N        23.97479382990418   16.61617634625813    4.71914627084058
N        18.62987533204639   16.21765264285218    6.91937276282428
N        17.43130639339059   16.48896447727418    7.24220452179942
O        18.11090583374843   19.01411351115578    6.64776914973220
O        22.21743763210072   19.69710102298965    4.91475561829104
O        16.76190610269656   16.88372260522726    4.56079951573563
H        17.39080457394539   17.45153147174210    4.10000200066383
C        13.43497564260228   19.19448497696849    6.37378879716407
C        13.72272856358302   17.77643999052875    6.27406834107227
C        11.47334975716434   17.39285207915770    5.36273143664415
C        11.22887315700814   18.82004056609264    5.48112537153670
C        12.15980045943924   19.69020813925524    5.98516217123130
C        12.99608285156906   15.52796519921895    5.74626273019166
H        14.07185148205109   15.39296812704428    5.62499335777956
H        12.46221390141924   15.14134376711936    4.87594933888827
C        12.50599568676759   14.83386417188147    7.00945208204265
H        11.42904051886575   14.94930690990287    7.10306751082679
H        12.99148298487492   15.25685423116862    7.88571823208432
H        12.74071768349427   13.77461304321841    6.95961635696352
C         9.96353018780332   19.27843158285354    5.05701223643108
C        11.88601556074665   21.15301329320419    6.10650770511793
H        10.81682104474017   21.34686342855937    6.10895898972780
H        12.32354386769783   21.68393325325540    5.26049100598814
H        12.34033940585616   21.54137221344149    7.01453343306030
C        16.17882513334314   20.80726312462127    7.87770402851806
C        15.95770821989104   22.14599583154388    7.55241177520595
H        15.22537282094270   22.40198007184209    6.80381674340289
C        16.69006204769753   23.13918063048523    8.17546052865186
C        17.63139884787348   22.81119439872760    9.15037643428096
C        17.82451348445113   21.47993170447359    9.49928333738756
H        18.53859984860749   21.23862999010696   10.27094084708151
C        17.10980911359756   20.48479159240590    8.86748464396451
H        17.25359601051694   19.44553423530472    9.13686408695165
C        15.89185464579504   20.71455526849798    4.20310635795634
H        14.87422786748285   21.02047600619770    4.46449655413927
H        16.04634226987205   20.86794231419902    3.13045906389291
H        16.59986029133927   21.32814179370523    4.75713467000595
Cl       16.43276962262079   24.78540029489521    7.73606498576497
Cl       18.55386482037133   24.04210317471212    9.92120771765061
N        12.73901546513687   16.96356974904066    5.80303617857217
N         8.94232895064660   19.67106650511520    4.71365989720359
N        14.28619312691009   20.05473665100734    6.91834315326932
N        15.48316769548467   19.77873835859946    7.24220210438489
O        14.79650433021279   17.25573232193226    6.65142139119739
O        10.68699506673526   16.58351059132326    4.92103707548509
O        16.14252814499097   19.37043321223022    4.55822572152024
H        15.51449964222195   18.79973904691031    4.09975729892670

