86
CSD_code = TAJWEI | q = 0 | S = 0 | Stoichiometry = C44H35ClCuN2O2P | MND = 4
Cu        1.09425408244394   -0.21080125694972   14.72625007813090
Cl        0.38215454742807   -2.21202415450429   14.22202743447506
P        -0.16383219473991    0.78832667621834   13.14559300636126
O         7.01055551698667   -1.16870783871442   11.66406674540180
O        -4.47725252100841    2.59712554552745   17.34599366565669
N         2.95600673543201    0.11863465082966   15.20351409578112
N         0.66268406251017    0.79095257620145   16.42118400655642
C         4.03044908410507   -0.18972506574110   14.39150080928090
C         3.99069920176712   -1.37025282847286   13.63803512286127
C         5.00189184285286   -1.66644230105117   12.75730745406085
C         6.06979694186620   -0.78232497751832   12.57103413997947
C         6.09481400416107    0.40829613781741   13.28930949523177
C         5.08975480618249    0.69524142460772   14.19513065928978
C         8.11046373943221   -0.32427029111138   11.43326707644039
C         3.02157304861579    0.66397184662434   16.38413810051869
C         4.10758050687516    0.94710230006289   17.31503426047694
C         5.45449475206968    0.67524477051463   17.36937070781889
C         6.18192463224474    1.08643891591581   18.50116348143914
C         5.60323731539136    1.73739292256680   19.56263640915951
C         4.21502466244437    2.00229472264881   19.56007532805583
C         3.51052635902303    1.59822127130940   18.42379301273487
C         3.45269530568359    2.60144089334250   20.58821581280662
C         2.09266588223904    2.73265636053524   20.45265151079193
C         1.39534620353435    2.29852835363538   19.31022819821140
C         2.10849859492178    1.73773388599184   18.27783867022999
C         1.77616612659964    1.10504903734810   17.00488215986503
C        -0.60218733823015    1.24528694639219   16.72285336031812
C        -1.66127793053852    0.33948944387372   16.63685928193797
C        -2.95978665855698    0.74469009989539   16.86166594599299
C        -3.23609359321679    2.08375657375227   17.12753353733323
C        -2.18399044297613    3.00175794402154   17.16799736825561
C        -0.88454597728775    2.59085558692527   16.98226843340185
C         0.11833374555699   -0.04452241289476   11.55686293523610
C        -0.87770183388671   -0.36943716428219   10.64459988156428
C        -0.54117393462648   -1.01455896885991    9.46731592649451
C         0.77848176075447   -1.33629698823510    9.19694309957284
C         1.77359358494477   -1.01127050458049   10.10546202592076
C         1.44463067793344   -0.36753179453890   11.28183280233178
C        -1.96247911770498    0.76947346652211   13.35538011191885
C        -2.71002476626196    1.92461720107474   13.55996342766577
C        -4.07442123681496    1.83109601893735   13.76714052943672
C        -4.69376115227345    0.59181533328741   13.78268954170835
C        -3.94367624280841   -0.56311098955831   13.61823378908555
C        -2.58010960386168   -0.48006046586989   13.41398732327629
C         0.18031507362136    2.52627071711781   12.70657159122692
C         0.88768017438769    3.29548591791392   13.62336882193331
C         1.17634169729025    4.61957529517600   13.34575921643693
C         0.76637136223154    5.17653188075176   12.14548265708498
C         0.07101446563308    4.40912657512106   11.22333147355107
C        -0.22235027640147    3.08652243545428   11.49876736256288
C        -5.57929294707442    1.72228614026850   17.32285462820333
H         3.15612974615428   -2.04367239751716   13.76851409175499
H         4.98665099392342   -2.58001268444828   12.18480059116744
H         6.88763201523596    1.12700775659901   13.15096936467022
H         5.10109461873427    1.63720544506677   14.72466347177975
H         7.79680256606352    0.64655976350944   11.03497411923112
H         8.72393113823333   -0.83451109438845   10.69228978929145
H         8.69874833228135   -0.17008153494287   12.34395213309346
H         5.96010232097118    0.14727997916472   16.57512509583218
H         7.24095018884397    0.87294938618817   18.52865120632105
H         6.20024619433830    2.03611027503817   20.41198233018287
H         3.94683140528606    2.94128661998084   21.48681651015561
H         1.52355778910157    3.17880225784762   21.25565114184093
H         0.32152773438679    2.40289287094450   19.27059580792878
H        -1.44106676465279   -0.69184716999074   16.40351461387772
H        -3.74968227284930    0.01311527848796   16.80744831311176
H        -2.41622965063976    4.03983251491655   17.34860090217033
H        -0.08003255968786    3.31255396864797   16.99287515983188
H        -1.91081787554076   -0.13164608372602   10.85760517946017
H        -1.31586812193859   -1.27357161393742    8.75992045533203
H         1.03056199021465   -1.84844581770348    8.27991734597720
H         2.80265497257200   -1.26861412831601    9.90196109505426
H         2.20857516172724   -0.12540761213697   12.01134594327608
H        -2.22771801080356    2.89210007916527   13.55227680271399
H        -4.65560137902436    2.72997887199304   13.91580995451749
H        -5.76376884207317    0.52427745637817   13.92419494301076
H        -4.42453693346359   -1.52990993751078   13.65080807292789
H        -1.97635826610814   -1.37189538807798   13.30873400911886
H         1.20818444553252    2.83884259187720   14.55152524897735
H         1.72294883887136    5.21725258647558   14.06116568395182
H         0.99238361577843    6.20950192314666   11.92495745132210
H        -0.24297287074243    4.84581991129674   10.28627149860754
H        -0.76386087959792    2.48336867716588   10.78315069818532
H        -5.68131200588978    1.23423049127722   16.34911913865353
H        -6.45295592272044    2.34461074470669   17.51121061111465
H        -5.50289444137912    0.96018414749933   18.10513471153061

