33
CSD_code = TAJXOR | q = 0 | S = 0 | Stoichiometry = C10H15NOS5W | MND = 8
W         2.43767741123204   14.74386928684731   10.87891771589760
S         0.80594860206614   15.08562242634962    9.13235855270347
S        -0.14682589116633   13.31774827840418    9.50806813837484
S         1.12771434644191   11.83701942832101    8.84810624098047
S         2.46776842992738   11.53152121611294   10.38508612274145
S         3.90770790025901   12.96540941138963   10.17128694125459
N         3.49660423941930   15.88625618383070   10.04291843473037
O         4.20637159175845   16.73591196361466    9.65666690648444
C         0.71161121430432   15.09901693912644   12.45298867829803
C         1.79306801401058   16.01381115258708   12.66847274977732
C         2.94625681327793   15.24108048800264   13.05261220000866
C         2.55787664619595   13.86196292331902   13.06744456279523
C         1.18261265271786   13.77805965371496   12.70412836606793
C        -0.71428999609721   15.49377435427603   12.21754756670289
C         1.68919583993253   17.50929937994442   12.70586714761533
C         4.24352526319186   15.79859200548482   13.55734083765492
C         3.40366906398204   12.73733879516030   13.58198314107202
C         0.31271475280828   12.56834968205612   12.87135107970433
H        -1.27506303280781   14.69224447904807   11.73933327455307
H        -0.77742494918651   16.37891464545340   11.58541272319979
H        -1.19278188373863   15.72065744055921   13.17188932620005
H         2.63353361731092   17.96920645116279   12.41835454875518
H         1.43917846435359   17.84275831930776   13.71473019237895
H         0.91565458977902   17.86270779766265   12.02612419412086
H         4.49388700338300   16.72294331262255   13.03885750612202
H         5.05691300398592   15.09074912241959   13.40686759059101
H         4.16846552168623   16.01472781685793   14.62457363402122
H         4.45047349618944   12.88022647779828   13.31508362996353
H         3.07768528044315   11.77880255545217   13.18113288522915
H         3.33139262370749   12.69323614630437   14.67015685395557
H        -0.53102613947195   12.57861418080635   12.18464586878288
H        -0.08272866636231   12.55787514690220   13.88919530146563
H         0.87003417646508   11.64709253910072   12.71759708779337

