100
CSD_code = TAJXOS | q = 0 | S = 0 | Stoichiometry = C31H54F5N9Ti | MND = 6
Ti        4.23993419351429    0.48988701167448    5.99726381455304
F         1.65126434079593   -0.47282827974638    3.67081557795314
F         0.78459736957353    0.01193924444451    1.12826111583453
F         2.60915149129496    0.26630073597864   -0.91426685040026
F         5.28041237299469    0.08058769808671   -0.34759483509819
F         6.13860830123497   -0.30319555875023    2.17121597083975
N         4.22441993458801   -0.58386118242684    4.31579943544910
N         5.51837532315395   -0.91764486853187    6.08420621645586
N         5.78524684668557   -2.46821303318680    4.38791271716650
N         5.60207568065771    1.98490052252119    5.60089156122023
N         4.79399435656210    1.66137268900118    7.63739672056282
N         6.35255862378467    3.44200226853952    7.37974337529596
N         2.55000197300842    1.62508607958016    5.47567441019850
N         2.53705363111665   -0.14107871837478    6.79164591607353
N         0.44040606320803    0.98513686119009    6.40202786338599
C         2.54630474172653   -0.31471504654349    2.66605145400142
C         2.10138780037920   -0.08339732228889    1.38218185235772
C         3.02230155321372    0.04336868023644    0.34497655004922
C         4.38022132646050   -0.05745254863466    0.63860225967130
C         4.80995728720549   -0.27882976272887    1.93441332393184
C         3.91142807118808   -0.41573222073747    3.02494635822664
C         6.56693801759694   -1.61285933202963    6.81058924853937
H         7.38733764906902   -1.80572651021722    6.09995546967559
C         6.10025298946278   -2.97550776707901    7.34171766657465
H         5.77229984936226   -3.58490547022652    6.50496113425659
H         5.28129396123974   -2.85274413821346    8.04715823303036
H         6.92386280183373   -3.47951278748388    7.84217610615211
C         7.07290973189348   -0.74389027410033    7.95679678277857
H         7.42728447229537    0.21095076698995    7.57363275561654
H         7.88903102472027   -1.24179358157681    8.47693543868784
H         6.25884140317821   -0.56152718385562    8.65483953150139
C         5.44971631032645   -3.18629157670623    3.18778795591344
H         5.49369385572317   -2.55752697702484    2.28699734786066
C         4.04319188638342   -3.79176278078091    3.27371579745898
H         3.29330793032571   -3.01205375379455    3.38374159163402
H         3.98000057811656   -4.45469853368622    4.13381325782933
H         3.82692065287466   -4.36074882289955    2.37222730843488
C         6.49339816628301   -4.29508225551583    3.03436728332061
H         7.48519058404920   -3.85755230382598    2.96494145236943
H         6.29833391825072   -4.87913687901275    2.13820723472887
H         6.46578061072402   -4.94883075250762    3.90190151165137
C         5.24890362830084   -1.40026801403225    4.83200217307772
C         6.66877634565876    2.32713527970400    4.67550594782070
H         7.24319145402053    3.18867128035203    5.04121320114591
C         6.06631551925650    2.68766186505186    3.31457900582990
H         6.82922470677408    2.66967412777110    2.54060594063997
H         5.62051171591695    3.68115064653366    3.33584807697092
H         5.29029895443555    1.96504394522351    3.06601562971311
C         7.64985891958641    1.15379582080484    4.55292750625112
H         8.40285590142967    1.37174599192076    3.79888491899611
H         7.12411591980144    0.24446674049668    4.27272059426160
H         8.14973629971978    0.98405410729120    5.50510154304684
C         4.40273155931858    2.17572497053667    8.94104117219543
H         4.83123791041470    3.18167102270308    9.07306195865040
C         2.87769618127284    2.28968772881647    9.02348534723080
H         2.48464286440057    2.87395515649003    8.19480385665699
H         2.58417594935365    2.76255079694924    9.95904343741615
H         2.45124692099948    1.29176511720381    8.97531360310709
C         4.87605837380957    1.28342376823913   10.09557085386222
H         4.50947559590765    1.68232664716690   11.03925539796477
H         5.96001425270905    1.23233869128818   10.14900369539177
H         4.48120127744074    0.27802296879954    9.96595610077221
C         7.37106951018758    3.21585033148020    8.37566265053005
H         7.27200434374128    2.21506435807049    8.78385566368926
H         7.28376344597460    3.94642578610525    9.18683941994068
H         8.37322158647181    3.31421074119196    7.93484990114905
C         6.44794738903807    4.72360281659265    6.72605629960051
H         5.71889005619216    4.79258012760828    5.92443813587036
H         7.45163175794319    4.91751263664520    6.32411702716988
H         6.22889615678470    5.50911872623821    7.45978730343423
C         5.60917751266159    2.36832773697331    6.86475984979125
C         2.05466165154420    2.89120933924441    4.96944868128338
H         1.05267026055570    3.09483656813013    5.37668897904839
C         2.98817135895569    4.02380569640632    5.41049295548411
H         3.08093882720113    4.05380561593597    6.49427248259965
H         2.60675410064460    4.98283387218907    5.06441037585180
H         3.97215507007980    3.85017250000092    4.98196309354747
C         1.99023724370748    2.89271925891510    3.43607535893193
H         1.26018805263881    2.18013392004364    3.06330189761566
H         2.96726334149338    2.63016327073102    3.03289971192114
H         1.71227416386470    3.88027842940705    3.07442336835931
C         1.98726422546328   -1.39114124494417    7.27984364936300
H         0.89099737937273   -1.35045560812499    7.32020902693405
C         2.54150349260552   -1.67685116243151    8.67946263352629
H         2.31955450008005   -2.69837895691890    8.97946716950047
H         2.11416402155010   -1.00306973589585    9.42063780863434
H         3.62252850062317   -1.53237926435571    8.65157854110382
C         2.36753288563744   -2.52602870524619    6.32181093417652
H         1.93692082173625   -2.33489425312498    5.34168664618902
H         1.98715182879862   -3.47721791710858    6.69018767378935
H         3.45121800672307   -2.58034393500760    6.22778248646178
C        -0.20910615825543    0.78690842387591    7.67462139406566
H         0.52338356383053    0.66031971275413    8.46481819151407
H        -0.88625579444437   -0.07692748644702    7.66393895662048
H        -0.81050219047951    1.67547330201979    7.90268001195200
C        -0.49768897505826    1.09555674801974    5.30976539667258
H         0.02483270607066    1.13287611771087    4.36300156602190
H        -1.11948277397779    1.99085347694662    5.41968785538281
H        -1.15876519898723    0.22014218168159    5.29743032296014
C         1.80787540244448    0.81247557961766    6.20767870256778

