61
CSD_code = TAJYOU | q = 0 | S = 0 | Stoichiometry = C24H30Cl2N2P2Pd | MND = 4
C        -1.20279793414800    1.91750731256197    3.35562108567393
C        -0.38641424550034    0.81568045896297    3.11796717242627
H         0.68547604867744    0.91645168789569    3.27029205823035
C        -0.94268845995784   -0.38588756634779    2.72344346551089
H        -0.31176152671984   -1.24242854142355    2.54041815633676
C        -2.31776589573981   -0.49126809037101    2.57954195730968
H        -2.75733625576276   -1.43000569366129    2.27709813478762
C        -3.13359839525105    0.59897615912246    2.83771196153396
H        -4.20516142693770    0.50655102409249    2.73769037450457
C        -2.58186641215907    1.80560332644949    3.23125874733710
H        -3.21708781388167    2.65453429211069    3.43972555937721
C         2.80480929261854    3.61488234685853    1.69056374356437
C         3.23507753898683    2.36779596888170    2.14192458310903
H         3.06396980552002    2.07579629502947    3.18932666471884
C         3.91174975815755    1.51814719582270    1.28508565684158
H         4.25240115175084    0.55590062821817    1.63692817246825
C         4.16191933145892    1.90870664251646   -0.02109095130850
H         4.69286273087885    1.24724248439390   -0.68935518281347
C         3.74252982253918    3.15116871021054   -0.47004672055364
H         3.94577514617358    3.45589306111091   -1.48616982553722
C         3.06627490692895    4.00661201599227    0.38116115752933
H         2.74704880621007    4.98002566424330    0.03432842697585
C         2.18343758943672    6.32976697660578    2.35044677774521
C         3.52699902144401    6.68111444006642    2.22468231910580
H         4.28504694961553    5.92365101283144    2.37509348525373
C         3.87643926049896    7.98259227925965    1.92226598744876
H         4.91717405285162    8.25150320435875    1.82126747497729
C         2.89065925662587    8.94396818036864    1.75643276644429
H         3.16358792005261    9.96110373400261    1.51825906699443
C         1.55646373712318    8.60469891919796    1.91047255832609
H         0.79021297995958    9.35754123625501    1.79638589149682
C         1.20028364862431    7.30390902141980    2.21901531732556
H         0.16050396841631    7.04370468495104    2.35448146738028
C        -1.10785119877447    5.62007101672070    5.15941870240436
H        -0.42773779107794    6.08994442330272    4.43482647557546
C        -0.36249425721125    5.42931341680465    6.48191800215505
H        -0.96595628202605    4.84807181893539    7.17848334267592
H        -0.14891938594844    6.39733666771832    6.92934284611309
H         0.60409766159668    4.90568909949822    6.33174382235907
C        -2.33968829228520    6.50183033052056    5.34635983526551
H        -2.89066320561366    6.58629240873894    4.41276858111627
H        -2.04578288927228    7.49606650964015    5.67101395892391
H        -2.99816018735955    6.07226639708996    6.09834390454471
C        -0.42141332013430    4.48032751210868    1.21822711823218
H         0.19698495467851    5.22186742632204    0.69260270539279
C        -0.42103341206147    3.19148560995752    0.39669444627209
H         0.57462469969275    2.75457017968387    0.37369363003126
H        -0.73046231098429    3.40565773824937   -0.62356759262586
H        -1.10898496974477    2.46681336089338    0.82406143583568
C        -1.83952911352484    5.01909825703418    1.36689127416860
H        -2.45629705273453    4.29005731308689    1.88410799178172
H        -2.26741410874432    5.21249171536195    0.38615142901106
H        -1.84473835726216    5.94278758374508    1.93967585066062
Cl        1.26384989392429    1.89578405697952    6.37598692019977
Cl        3.82750319587366    3.83461442017844    5.53646138323320
N        -1.54484182787024    4.35441006695744    4.55380450521440
N         0.20062887038363    4.30198920097963    2.52778872490258
P        -0.32444038260436    3.40237291098345    3.89991957880846
P         1.85581519140943    4.62883823152343    2.87385561591518
Pd        1.72420257569788    3.44763483321431    4.79755157361617
H        -2.07972305630478    3.81107842185610    5.22964642766492

