19
CSD_code = TAJYIM | q = -1 | S = 0 | Stoichiometry = C4H4CoI2N4O4(1-) | MND = 6
I        -5.16013369389602    3.13289622619269   -3.90597850219090
I        -1.45310156563446    3.13289176408449   -0.30948600579803
Co       -3.30661353578198    3.13308654009367   -2.10755951246558
N        -2.38788241595904    1.75428240921205   -3.05347967079743
N        -4.22750611352628    1.75472515117377   -1.15915390635898
O        -1.54015932455519    1.98747141271084   -3.92708909096068
O        -5.07512018741996    1.99042572046003   -0.28590608818454
C        -2.81064568017553    0.60989535489180   -2.61800312477608
H        -2.41677793101173   -0.31423447063423   -3.02377103448772
C        -3.80518437063212    0.61020405319211   -1.59386779424685
H        -4.19912416677454   -0.31379659094072   -1.18776768050704
N        -2.38758814666795    4.51113198553751   -3.05376044326363
N        -4.22780957670326    4.51068273120415   -1.15890246991059
O        -1.53983071632383    4.27825173887405   -3.92738028251715
C        -2.81062414675176    5.65535184628391   -2.61802462977279
O        -5.07544911140102    4.27529284969085   -0.28563582247503
C        -3.80522625105769    5.65504445569809   -1.59386958286026
H        -2.41686080337511    6.57956750435902   -3.02368185977904
H        -4.19906226235254    6.57912931791593   -1.18788249864767

