36
CSD_code = TAJZUZ | q = 0 | S = 0 | Stoichiometry = C15H17MnO3 | MND = 8
Mn        4.57099395973614    3.40985978343406    8.96619514892322
O         2.45777614542898    3.82021950186389   10.96803247376889
O         6.70028699832291    5.04970288870342   10.14786499934492
O         3.85111717813902    5.51141037340931    7.04668411194075
C         4.88124436604849    1.36064660486940   10.03985287368885
C         5.92577817557792    1.65283170899059    9.14784015705177
C         5.62537308870755    1.96540457535126    7.77848055331092
C         4.25805915177353    1.92373931877851    7.33990351297387
C         3.24114904464918    1.62450079167681    8.26105473945186
C         3.59913491471120    0.88722153063801    9.48668659778264
C         5.14748733514548    1.07093777173803   11.49532769034583
C         7.37160757594316    1.56284830170501    9.57316265707207
C         6.73850014783232    2.00152439606226    6.76092101451337
C         3.95657521182187    2.11943651334577    5.87351824274306
C         1.78953815969407    1.61052492511303    7.85383184637316
C         2.83520067255280   -0.05249081823742   10.05207471106787
C         3.28936427698049    3.69804483987083   10.18666160134291
C         5.84912539816191    4.42948642935597    9.67997262942258
C         4.13990062313810    4.70666755378809    7.81931776261986
H         5.84319222507569    1.78854710209325   11.92597622956166
H         4.21832805837360    1.13063025145926   12.05811289603424
H         5.55699755086804    0.06599361694408   11.61792466542835
H         7.46757145637164    1.36479470081930   10.63531984787784
H         7.84067099077225    0.73934305015321    9.03173433969076
H         7.92553131520813    2.47367532839421    9.34946723401873
H         6.96041569643949    0.98395736815069    6.42818640437463
H         6.46827118258582    2.59060864714706    5.88912976404575
H         7.64800125125102    2.42737599284238    7.17568537134890
H         4.38147740071703    3.04364252051346    5.48421457224499
H         2.88946245845002    2.13462574399599    5.67968115839589
H         4.38957894870170    1.28597767995730    5.31737345196042
H         1.53180740733650    2.48379859853530    7.25765115506212
H         1.56139675913556    0.71117446985841    7.27787150034163
H         1.15879924466380    1.61628650055890    8.74024166377198
H         3.12260147008094   -0.54897797143304   10.96063609895311
H         1.89428415960404   -0.35227059044644    9.62851032315015

