122
CSD_code = TAKBEP | q = 0 | S = 0 | Stoichiometry = C43H68LaN4OPSi4 | MND = 5
La        2.12756028543640    4.30588173583911   13.45392255471133
Si        4.18595451889552    1.98326536423837   15.28006591198824
Si        2.63252927776382    0.86872584490051   12.95478653098838
Si       -1.17403096912503    4.29763187955832   11.80650734647190
Si       -1.04328738611000    3.60514786621176   14.71308423096270
P         4.71879858930939    5.25253973938229   11.28081631969167
O         3.42521470590198    4.51586933157511   11.47262687351010
N         2.16802502725055    6.57820009307119   14.79916776286009
N         4.07336646154372    6.07692819384266   13.80846829225165
N         3.06939789637315    2.17275236679690   13.99151635505263
N        -0.26713984502967    4.10163318511390   13.25559514075981
C         3.39041317459291    6.97485628525656   14.53826706135677
C         3.95634659868081    8.36874165619054   14.87758800632436
C         3.06027396625984    9.45928851611028   14.27086403202315
H         3.46326163648728   10.43660251627195   14.53126089375676
H         2.04538760449804    9.40549716493312   14.65024067461538
H         3.04770578609329    9.37819163508619   13.18549154896232
C         4.01274294533341    8.57161459219420   16.39674183086220
H         4.54796523149072    9.49362807415905   16.61689776492917
H         4.53436910055948    7.75188540647687   16.88501768038308
H         3.01352244199635    8.65074316608307   16.81166187799243
C         5.35934757803385    8.59554183659485   14.30002454215470
H         5.60250088833151    9.65478695564837   14.36943779742600
H         5.40116951090167    8.30835912049230   13.25264509011474
H         6.12021903877248    8.04324608190067   14.84166631640661
C         1.10913498783946    7.29253536007785   15.37836411195169
C         0.15798693640109    7.88372573374300   14.52573500966915
C        -0.92509020127322    8.55211246007854   15.06943756842179
H        -1.64686812475536    9.01418869956042   14.41146323661164
C        -1.09922293092699    8.62197068637816   16.44160856204294
H        -1.94122858792113    9.15471277742060   16.85654266873767
C        -0.21029634113629    7.96890160428365   17.27224921170529
H        -0.36791892020486    7.97389823919310   18.34128311589786
C         0.88659909065930    7.28565311780127   16.76161538504709
C         0.30823358814901    7.72500895196631   13.04431083384048
H        -0.49908500329066    8.23249714734344   12.52114157472283
H         0.27102448725607    6.65442169394007   12.80390353718266
H         1.25946745466222    8.12190645099174   12.69415929221966
C         1.75917436825729    6.50628002769597   17.70464003104587
H         1.17790357866329    5.69471846805712   18.14289255310163
H         2.11338174118586    7.13440344851364   18.52140709936370
H         2.61379736232583    6.07767983507003   17.18877571517853
C         5.38115538544031    5.71503403850369   13.84861743186361
C         6.21110095673317    5.68829541161600   14.98151644575209
H         5.81989431209853    6.00928367816471   15.93576258530270
C         7.50773739339184    5.23422179458743   14.87812009171829
H         8.13659452705716    5.22420749808409   15.75698813916301
C         8.02279261482234    4.78810790011150   13.66649534215865
H         9.04374109284998    4.44544870181263   13.60364131327599
C         7.20919818520397    4.76103558031279   12.54812147075099
H         7.58516184481043    4.39265464953392   11.60353155275328
C         5.90053623014433    5.20299282434921   12.64407591673680
C         4.44235967253544    6.99873825632134   10.87771894687320
C         3.14778010786515    7.45105457191362   10.66883122280008
H         2.32865662519059    6.74919525360294   10.74796046311682
C         2.92354692612986    8.78263957531745   10.36321721670405
H         1.91641366909602    9.13796206820540   10.20106294949129
C         3.99187652608042    9.66011263579019   10.26399986949538
H         3.81644695428152   10.69887765142245   10.02701493212641
C         5.28620427943792    9.20906341070847   10.47259517578855
H         6.11644011412847    9.89575534004696   10.39897644847689
C         5.51367192219617    7.87997859854524   10.78287539815198
H         6.51715273800426    7.51753604731863   10.96167845067541
C         5.57409893279633    4.48489912691964    9.87176810992917
C         6.10797825435926    5.16993524456771    8.79145229493771
H         6.03300567639344    6.24675844273172    8.74146888911765
C         6.73142376354957    4.46590216608600    7.77418897944093
H         7.14684501690525    4.99738279146677    6.93060922104416
C         6.82162242484959    3.08522546828860    7.83527268995963
H         7.30974534300141    2.54262564652549    7.03934431918936
C         6.28344384666897    2.39876390669521    8.91329568703510
H         6.35065935108621    1.32209352164209    8.95909319722744
C         5.65998804398154    3.09755710724555    9.92966090846050
H         5.22722625580379    2.58456595621709   10.77858544837570
C         6.01087684049520    1.91315439963877   14.69049162813880
H         6.25482148150552    0.92568049944230   14.31472727399643
H         6.71071567804673    2.14402205737108   15.48728011238825
H         6.18270708307289    2.62168585380381   13.88705668065531
C         3.98933937464745    3.49517768732654   16.45013569190072
H         3.68994523506905    4.38459294375752   15.88822182143176
H         4.92324766897698    3.71804363699266   16.95633981827286
H         3.24142338004349    3.30668252798960   17.21407355818034
C         3.92016296865568    0.43019529187776   16.36937051905022
H         4.09302132383674   -0.47158455062480   15.79275254334026
H         2.90654712465164    0.38410596936295   16.75322929106327
H         4.59678156210308    0.41329844160926   17.21786777418508
C         4.10203059145202   -0.20797407520853   12.35365088119332
H         3.80665472358437   -0.89071311640114   11.56337344966590
H         4.49295817027874   -0.80187308787906   13.17236719782088
H         4.91667108916445    0.40268348780459   11.97897779367063
C         1.35801233159034   -0.32837937985234   13.74217759058385
H         1.01438461257314   -1.07386468384206   13.03205512735449
H         0.48940719063803    0.21398283097535   14.10161171076153
H         1.78926542731328   -0.85394779443247   14.58661291796633
C         1.79303915452314    1.63670354846513   11.41106268753552
H         1.40925794561173    0.86615189401852   10.74806259023551
H         2.48492803771340    2.24348534655662   10.82958417649933
H         0.94583024640422    2.25236201950814   11.72035073888214
C         0.03668024017051    4.96470284851519   10.46382996726663
H        -0.03301933735118    6.04394577243363   10.36074178170577
H        -0.19975827622583    4.53848784063812    9.49403011913778
H         1.07413647718458    4.70076115323651   10.68582248488310
C        -1.97908410144203    2.71926310010135   11.07070839631734
H        -1.26538246880525    1.91344562013640   10.93701047069784
H        -2.42743716609790    2.92536099490198   10.10308258853069
H        -2.76448610464195    2.35270158799157   11.72144304543959
C        -2.61893778901788    5.55149293583269   11.94826015468392
H        -2.37090783358130    6.37962783329983   12.60222129016119
H        -3.49423414163940    5.06370734696831   12.36320105069990
H        -2.90025364105744    5.95798450870065   10.98173541152205
C        -2.12389836994876    2.03207160893620   14.56974991045526
H        -2.30269813660811    1.58051027567415   15.54033194990464
H        -1.65485035856249    1.28632882587313   13.93783309077145
H        -3.08990071401443    2.26854801917246   14.13722742130724
C        -2.15911837400710    4.94555882345209   15.50651442358519
H        -2.52272944992571    4.63086328404385   16.47962961425702
H        -3.02329488257196    5.15048866202533   14.88569123755314
H        -1.62301848631799    5.87864005107481   15.64090945223368
C         0.34138967475124    3.23310790477961   15.98222351395995
H        -0.07917138599788    2.91686367592700   16.93272170493258
H         0.93188831476340    4.12898968998080   16.17564884141108
H         0.99875053200492    2.43669771348310   15.63586545259404

