29
CSD_code = TAKKUO | q = 0 | S = 0 | Stoichiometry = C11H10FeINO5 | MND = 6
I        10.28964754166563    4.35645222146053    6.19841884265268
Fe        8.99375167599409    2.35413703074297    6.92375891936039
O         7.79458057998888    0.05794432026858    8.18360273898463
O         8.27869935249755    3.57700451747791    9.44415926530324
O        10.86651127431778    1.53968921900360    8.83145145516317
O         7.61028755539944    1.53802936567900    3.86028485294818
O         7.15947667722115    3.03679464656311    5.61677130023299
N         9.51089893100502    1.17975382973677    5.18375628074983
C         8.23588680380062    0.96212764173589    7.63020245069803
C         8.56489549910874    3.13704063456950    8.43218972832651
C        10.54848661223029    1.55252191765326    7.67860786118970
C        11.42919134346131    0.90441821470180    6.59546080023673
H        12.15286237842001    1.67889008890033    6.31346741882279
H        11.98809676351784    0.06816736313479    7.02188273796228
C        10.64704797609868    0.49336575713002    5.39729582523547
C        11.04487494887078   -0.53999739759010    4.56584147939750
H        11.96285327040080   -1.06737129313512    4.76741339681869
C        10.24359342323685   -0.88445442265751    3.48714859894480
H        10.52387694265992   -1.69327274406535    2.83055454400694
C         9.08598193855356   -0.16962317560765    3.25948741296283
H         8.42516553597130   -0.38094778067140    2.43610564007459
C         8.76083476405516    0.87177739432469    4.12850712562489
C         7.46181359893136    2.88059467073706    4.26554285278675
H         8.38301839284906    3.44702210023289    4.08103226133884
H         6.64522485822638    3.26565464832144    3.63875468607202
C         5.83973954800343    2.63529345170053    5.95831666775126
H         5.11372835090033    3.22861297212306    5.39451047874242
H         5.72416095005670    2.82224234004133    7.02335069552007
H         5.68511251255735    1.57313246748875    5.75172368209202

