54
CSD_code = TAKMIE | q = 0 | S = 0 | Stoichiometry = C25H21N2O5V | MND = 5
C         0.12265228719611   18.12737877475184   11.98369001948259
C         1.08306993074079   18.80156188211897   11.20002790651154
C         0.85047667273513   18.94330552501583    9.79303689524420
C         1.86183112176474   19.30314372419462    8.88093529390714
H         2.87339513768491   19.42434519160791    9.22995409379245
C         1.59708089905431   19.43602441708160    7.54194216546353
H         2.39207647230934   19.70490972723832    6.86215262478482
C         0.31056175853904   19.21121457680585    7.04238107772223
H         0.11291354973798   19.33748694766440    5.98857791180477
C        -0.67783192395984   18.79167871301482    7.89127382353854
H        -1.66420836378127   18.56192646925727    7.51484660258003
C        -0.42744776602362   18.62152973218314    9.26537885955584
C        -1.42147110786464   18.09113089518986   10.12309890578721
H        -2.39594828467044   17.87130847961741    9.71136333451674
C        -1.14643128168858   17.81473908276780   11.42440462229430
H        -1.87519423753844   17.35439493828873   12.07625665186511
C         2.19474240368516   19.39565667912466   11.89639117030089
C         2.85318309461147   20.65715642095507   11.41099813172883
H         2.91342336895282   21.35535152182701   12.24683737636515
H         2.29243398747395   21.11248771920415   10.60140466883689
H         3.87459576014257   20.45711221346325   11.08882735191072
C         3.85634487627513   18.85615574242638   14.80243703478211
C         5.00526157702543   19.24890274437532   15.62488228732934
C         5.26665441428571   18.53253698023807   16.77501311448411
H         4.61756181902434   17.70436010750525   17.02538717098495
C         6.34430549501974   18.84945457773572   17.61399381518162
C         6.62190616908270   18.12272218244730   18.79252698162304
H         5.98062372201264   17.29250530109044   19.05162713987240
C         7.67959479472255   18.46211948253222   19.58688265556444
H         7.88915004272995   17.90360541007004   20.48722741794857
C         8.50725457375019   19.54355956839749   19.23901832603689
H         9.33920813810686   19.79783984852087   19.87951982817933
C         8.26588464126155   20.26640207001354   18.10508345810728
H         8.90153327162879   21.09749115214353   17.83616067209155
C         7.18223059665073   19.94303914655899   17.26023614817666
C         6.90991431186601   20.66261864099001   16.08540357576720
H         7.54176768187005   21.49129304438783   15.80490312547678
C         5.85173705865028   20.33922691019697   15.26621601343183
C         0.96745945779649   15.36696087349479   15.97713808007230
H        -0.09641306499779   15.22558809862443   16.23748964784983
H         1.53707481433991   15.48409319347949   16.91817408386622
C         1.49346977838470   14.16700863357159   15.18921866467561
H         0.91105145291035   14.05587660906537   14.27365624434549
H         1.42948766918727   13.25685106975578   15.77984574962383
H         2.53221813127752   14.36111242164102   14.91311766903736
N         2.55722640943564   18.91477926268108   13.05133043813091
N         3.58016123946337   19.50975081202161   13.69851777756178
O         0.34544814729263   17.84979502583259   13.23233390512567
O         3.10640582773196   17.88215171657932   15.16469399726106
O         2.49320648871228   16.33906980995512   13.01154674101376
O         1.10100177426930   16.51095874541562   15.24809612554132
O         5.65159292812271   21.06651800252272   14.15422344192134
H         4.87719942926673   20.69493973800036   13.67804934962742
V         1.79757285373921   17.27536944636422   13.99196983132038

