35
CSD_code = TAKNOK | q = 0 | S = 0 | Stoichiometry = C12H17Cl2NPdS2 | MND = 4
Pd        2.43134566250877    2.50775574683394    3.25647094731332
S         3.29763518049794    3.46730269503844    1.32437501404785
Cl        1.93739198254303    1.44192355519333    5.17193071091303
Cl        2.97383751072573    4.34036613555919    4.42027771243180
S        -2.06288488737485    0.90190557024147    2.68699945770456
N         1.93362487439656    0.76081426581324    2.04251436728703
H         2.22825486181187    0.00524927529493    2.66776298261994
C         2.80914330631537    0.80332327210282    0.86770610384284
H         2.54330955072521    0.01033281978099    0.15111778544415
H         3.84215978231573    0.63897853295633    1.19685592895019
C         0.02355295058554    3.89163063646311    2.00485761240407
H         0.48363580089729    3.92759047431895    3.00376403093638
C         2.73423533257142    2.15587885766887    0.16190145703315
H         1.71831241534794    2.39299952368862   -0.15263299162855
H         3.39530170209356    2.16675159860488   -0.70496391035852
C        -0.32956358716604    0.43656546227202    2.96390148045059
H         0.07027912669777    1.10232615732258    3.73745441307990
H        -0.34633170888428   -0.57903762295204    3.35649931945391
C         2.12271104207483    4.85634037439750    1.03585485602599
H         2.26790917923256    5.47494045763491    1.92515151699364
H         2.46520417927370    5.38577055798204    0.14678346465855
C         0.71133981910515    4.39576856164619    0.90058954761651
C        -1.95412244685305    2.71100568123181    2.99541204154506
H        -2.98957681325128    3.03606054591631    3.08568370508989
H        -1.43228163748877    2.85330085559715    3.94176830368757
C         0.52430371404826    0.52745256181990    1.70069305419914
H         0.42431859784648   -0.39671658901046    1.11205207794196
H         0.16948928134837    1.35619243665586    1.08180780335934
C        -1.86982565114546    3.41182525851589    0.60399421299520
H        -2.86384202735987    3.00584056274870    0.49293889467340
C        -1.25998548693304    3.37873228408412    1.85692147438576
C         0.09153001353567    4.41007996006163   -0.34404426046195
H         0.61975693421498    4.80150941677149   -1.20166252494888
C        -1.20374952317421    3.93765091703379   -0.48502106615903
H        -1.68351903109928    3.96608920070264   -1.45141552352623

