43
CSD_code = TAKNOI | q = 0 | S = 0 | Stoichiometry = C18H23OY | MND = 14
Y         2.04128988895160    2.22940960273023    1.57560646457537
C         1.66987062752567   -0.14046846369086    2.38777463609606
C         0.57337532262476    0.18344175054565    1.55262649960743
C        -0.18613902719860    1.18655626778069    2.20173359481633
C         0.43883135096543    1.46850490023458    3.44182380164745
C         1.59274228981045    0.65747818217646    3.55535750151149
C         2.47028737478280    0.52985783049657    4.77251867619658
C         3.92803506200859    4.38663313401786    1.09872434755528
C         4.25076702768664    3.24321849536354    1.89182289744751
C         4.38929013633576    1.86519097294548    1.55747862753282
C         4.26327389006089    1.17186875456929    0.30577153649272
C         3.32882864969231    1.31832618225652   -0.69391569939479
C         2.20961491892732    2.21689224808522   -0.78645815133811
C         2.09114646179296    3.60353439439191   -0.48216421755528
C         3.00763273477103    4.53892120779727    0.08202846545262
C         0.07488206737853    5.07520697437624    2.05173940293197
C        -0.46264506820081    5.89840708424557    3.21450150861564
C         0.83251586735515    6.25199098083365    3.94083128419054
C         1.66902704378431    4.98485192165647    3.75345177503731
O         1.14840780955881    4.29996486604283    2.59971006410689
H         2.36667073805170   -0.95230247584698    2.22638495728400
H         0.28230983584965   -0.35146834702004    0.65769340974082
H        -1.16308953402858    1.53781817697888    1.89197969783063
H         0.02715172875204    2.08732060899225    4.22836341226011
H         2.66137047974484    1.50036811394206    5.23383604789294
H         3.42484195623120    0.07418936239224    4.51324282681256
H         1.98960593697355   -0.10460224580808    5.52041088220848
H         4.38225561295210    5.30836840428794    1.45364593213692
H         4.74767745066721    3.50149956333036    2.83091186663531
H         4.97756902319189    1.30912254998938    2.29184557072797
H         4.92105723799663    0.31253606097285    0.21200872608285
H         3.34601274218757    0.55798644038094   -1.46945907217982
H         1.45359809669322    1.87631157676579   -1.49926746149491
H         1.25662726150716    4.08212278474154   -1.00045462435307
H         2.84521916733344    5.56262472643517   -0.24505873938102
H         0.46473593303381    5.72921323233818    1.26017628135159
H        -0.65738322300792    4.38416926874630    1.62541790238512
H        -1.10173143768293    5.28331739982128    3.84866363477009
H        -1.02002649766323    6.77139424976416    2.88538929192380
H         1.31437549715489    7.10047191620871    3.45502570713939
H         0.68040105567325    6.48933902264607    4.99078387858305
H         1.57392193321011    4.30982318822742    4.61279642509201
H         2.72779457657737    5.20688913486013    3.58870043101894

