41
CSD_code = TAKPIF | q = 1 | S = 0 | Stoichiometry = C14H20AuCl2N4(1+) | MND = 4
Au        3.97803319336781    1.69497614781545    9.32512671437260
N         5.78699121783069    1.65229175161942    8.63381446679377
N         3.15755323929478    1.73734630464324    7.57117182113113
C         6.75225266873204    1.39124353059139    9.69214956295971
H         6.87608583306506    0.30747775507536    9.81066232886695
H         7.72222296474743    1.83251145737829    9.45396565530907
C         1.72638034565575    1.99048258777536    7.66047533414574
H         1.54837398152538    3.07316931621920    7.65791428628479
H         1.19789142175444    1.54352177196190    6.81590667826980
C         3.80759093522862    1.90682130919219    6.42725992638875
C         5.19066233156798    1.69392650073841    6.32543054912951
C         6.11519531356308    1.48381611442424    7.35922048140672
Cl        5.84328866750074    1.68925705962228    4.69916797468927
C         3.02159394883762    2.29029815134357    5.21309217321906
H         2.31833989031427    3.08447765352176    5.45250100352207
H         2.45939895986975    1.43261185414060    4.84319337633034
H         3.67322457581908    2.63382549072039    4.41737624638868
C         7.52555459753741    1.10211448300752    7.03654336252641
H         7.84513468125103    0.27698972407431    7.66939851477960
H         8.19320295665759    1.94616560760914    7.21052048804157
H         7.62491545807626    0.80143127897635    5.99967750593144
C         6.22968616856549    1.99051992393910   10.98977808338405
N         4.79853083234515    1.73732076711949   11.07908525053979
N         2.16908579057363    1.65227872071383   10.01647279053517
C         1.20381285985602    1.39125506836687    8.95813162366131
H         1.07994389096375    0.30748742296560    8.83964636331624
H         0.23385990600667    1.83257188529002    9.19631177602923
C         1.84088535484250    1.48382932906597   11.29107563277502
C         2.76544618551940    1.69398650772244   12.32485672413738
C         4.14851446023577    1.90679872616567   12.22300734534220
C         4.93453745521615    2.29025612102847   13.43712662480369
H         5.63720131422438    3.08483975019664   13.19792474716449
H         5.49728051191655    1.43298567796248   13.80657721566433
H         4.28306319671074    2.63308669766185   14.23302336728013
Cl        2.11303203996231    1.68956508137053   13.95120293735479
C         0.43049271409065    1.10214597154008   11.61372385778760
H         0.11075912053990    0.27725139314994   10.98051754963925
H        -0.23708564099864    1.94647007203138   11.44012620238219
H         0.33122247117799    0.80104755962322   12.65056814506408
H         6.40765948874081    3.07321496844566   10.99229759381506
H         6.75818469731446    1.54363250519032   11.83437771883608

