85
CSD_code = TAKTOQ | q = 0 | S = 0 | Stoichiometry = C43H37CuN4 | MND = 4
Cu        1.31081769367854    5.98806706385004    9.42040365247544
N         0.46840426875968    7.48492967925099   10.33612855645518
N         0.04523034384509    4.53913387490063    9.69894810939013
N         2.03055192756892    6.67445256708291    7.66834994114975
N         3.17421332859359    5.28613261470388    9.68814770148728
C        -1.51679214856246    8.46890826732723   11.36784715131657
H        -1.00459308784049    8.91330613475786   12.22180859576992
H        -2.51025296336063    8.16555417488412   11.68394240379967
H        -1.61613133848628    9.23577892340338   10.59986446542493
C        -0.73359979292354    7.29469128342286   10.82601830113018
C        -1.36342826866313    6.04956208565352   10.92167588325192
H        -2.30756826472180    6.07145186666326   11.44827462294850
C        -0.99497429856417    4.78141819138425   10.46093493433894
C        -1.90629933440613    3.64578408660814   10.86770129235652
H        -2.36718768009963    3.18728395074769    9.99230895089793
H        -2.69499015070660    3.99268051225750   11.52844672025718
H        -1.33285043415503    2.87702901124805   11.38557876223554
C         2.47249026305608    8.81274977749662    9.89837953365380
C         2.89595784899857    9.46871616076403    8.75042645441038
H         2.17450828122495    9.99798825440709    8.14406759921604
C         4.22726791851001    9.44899783707551    8.37410216206190
H         4.53971778973408    9.95794354365561    7.47312971980310
C         5.15736599533014    8.77535616039229    9.14621006712627
H         6.19563983882038    8.75124146574099    8.84821761135970
C         4.75013474369813    8.13895159305926   10.30589956682840
H         5.47324450937566    7.62162882077402   10.92088790973181
C         3.41945610681611    8.16350996624806   10.68154890696081
H         3.11129504775989    7.67839551186332   11.59562989628041
C         1.02481849248404    8.82165980323332   10.30772865432833
H         0.95611970733295    9.28433691039781   11.30511611421805
H         0.45706765396620    9.45642374031097    9.61005535062638
C         1.43895726386690    3.12883572429606    8.27166487661364
C         1.31551594957065    3.76087575931548    7.04012230968944
H         0.39936345966950    4.27781251721660    6.79662994053054
C         2.35087524020688    3.72993232885649    6.12372190620705
H         2.24399053302347    4.23499670951833    5.17388392042064
C         3.52214180654683    3.05448748100183    6.41974131474113
H         4.33441330499681    3.03614934678191    5.70748694936025
C         3.64398689065357    2.39708841104009    7.63137107002982
H         4.55080973510746    1.85700061553606    7.86458493162340
C         2.60803380773188    2.43277811398896    8.54775241074882
H         2.70687792998702    1.91461894260844    9.49107338944378
C         0.31537714927246    3.18226726888866    9.27056370706494
H        -0.58033251714315    2.74572722414412    8.80051235768638
H         0.57329025863085    2.55288222818319   10.13615964779393
C         3.67829233469321    4.50452080214037   10.63910342510281
C         5.01055527103503    4.07178237056609   10.60055172855308
H         5.40962037841015    3.49822740316478   11.42303969206101
C         5.81726476183518    4.42639896147154    9.54261318207654
H         6.85649872419252    4.13074966927844    9.51213909791710
C         5.27708205238512    5.18224284410418    8.49561970384013
C         6.03545239208769    5.57821224648320    7.36062417359985
H         7.06545105840648    5.25603861777676    7.29790942360044
C         5.48719161349250    6.34875556947448    6.39169437073320
H         6.06848535068376    6.66344759911025    5.53630346603543
C         4.12845900182540    6.75877194130966    6.46675679305989
C         3.51214553533329    7.52934288170544    5.47370324205923
H         4.07109195084349    7.82303023717218    4.59637361980403
C         2.19704311480801    7.90455894732064    5.63409834729519
H         1.70031347712978    8.49381559679115    4.87855939315016
C         1.48006197545681    7.47135084093382    6.75751316717588
C         3.33731665171666    6.35741496740559    7.56851902728125
C         3.92741235329112    5.58908797069706    8.61128165388422
C         0.09316247686689    7.91541622176149    6.96059643839901
C        -0.27315342813419    9.21960127236346    6.62639028036175
H         0.45840370589942    9.89488545459301    6.20504304434203
C        -1.55740699948210    9.67282852465799    6.86251544749607
H        -1.82227984951905   10.68999528548106    6.61038548716004
C        -2.50021127053576    8.83011864927340    7.42840816116479
H        -3.50164159900037    9.18861705162740    7.61769548207189
C        -2.14954037334660    7.53052368377874    7.75339088831195
H        -2.87646519073324    6.86784585570273    8.19818612828976
C        -0.86472799275561    7.07596879988406    7.52336821384413
H        -0.59361761484728    6.06807746739177    7.79171657027176
C         2.79933899691262    4.07738763135336   11.73768840901821
C         2.91474213517541    2.78719051275227   12.25699187633078
H         3.65859123335622    2.11012712227557   11.86098263255199
C         2.06045281498733    2.34848623269456   13.25092970468683
H         2.15418021392977    1.34181619266507   13.63323596034336
C         1.08131403878803    3.19193315677051   13.75032757057449
H         0.41117112996226    2.84484974324004   14.52342217746286
C         0.96666986300106    4.47829013373725   13.25084485244585
H         0.20452760730403    5.14202077682202   13.63072536059724
C         1.81619598868911    4.91822496654404   12.25329919442127
H         1.71262130665125    5.91622929280001   11.86000428941530

