71
CSD_code = TAKVUY | q = 0 | S = 0 | Stoichiometry = C33H23CuF10N4 | MND = 4
Cu       10.54611998186408    3.77578156093384    8.72292173902438
F        12.13693502335391    0.33230395362421    8.19774674850424
F        14.75149438091127    0.88791016999383    7.77744234425553
F        15.47096298120332    2.68511135991554    5.85246715594061
F        13.54364043909820    3.89528005074818    4.34311131453244
F        10.93564869330700    3.33750938965077    4.77371596425447
F        12.67695449410571    5.49265407245505   11.60651477460958
F        14.28365918375351    7.16551772454290   10.22114852665364
F        13.22401956006702    8.84283330472600    8.34543792365019
F        10.52971217999172    8.84308843611086    7.89853172386931
F         8.92850554649135    7.16923798696965    9.29575676877891
N         9.62300809162496    2.18961663470064    8.06276735537551
N         9.51365061803550    4.18479385994575   10.32053524647442
N        12.60308667509784    3.66104826867117    9.12361759296756
N        11.19843593218325    5.12025549353306    7.37279003183766
C         7.79583163540672    0.56341080146362    8.18191185320056
H         8.40389777351839   -0.34134359703342    8.21101121844348
H         7.49581014885653    0.74111223948513    7.15001094470159
H         6.90346252357013    0.38875879950369    8.77447561974223
C         8.57773478043641    1.74013908041254    8.71921762810180
C         8.11530666428900    2.27670563414693    9.92375928341936
H         7.27054642743989    1.75316076211626   10.34653432604965
C         8.54260306557681    3.37431016346296   10.67596550151496
C         7.80002272763075    3.61607417357029   11.96909322299868
H         7.24385607732444    4.55244901568456   11.91784242157449
H         8.49681351694592    3.68221664586179   12.80389934751318
H         7.09652512533992    2.81438376844380   12.16994606754081
C        11.46091415785441    1.85090268863599    6.52920032515430
C        12.46604296157274    1.23116569777260    7.26690565052613
C        13.81121768564091    1.49949806778176    7.04813539610423
C        14.18102045546400    2.41107734297498    6.06502593534460
C        13.19768847080139    3.02839609140789    5.30122253081078
C        11.85774655431030    2.74229175451684    5.53957769464742
C        10.01364596546169    1.55838784199166    6.82093205492335
H         9.39946121725560    1.93195064096585    5.99002911083965
H         9.90114867099049    0.46689348853583    6.87077668714588
C        10.76185787011704    6.25001631830825   10.45466450684106
C        12.13290395472042    6.29026007023416   10.68002926119737
C        12.96755684783195    7.15585714981625    9.98189326943072
C        12.43040593388042    8.01437673475747    9.02969902042369
C        11.05865837505758    8.00873007216253    8.80066424533358
C        10.24565909738936    7.13602470831717    9.51317314017716
C         9.85636650878798    5.29433413544891   11.18350033691965
H        10.37046353140951    4.93983858394440   12.08792269935083
H         8.95924541548564    5.84938083559853   11.49286937087021
C        13.24630669147477    2.94702321788880   10.02754071803105
C        14.64051748468626    3.03120764540615   10.16515758072118
H        15.13365007093362    2.42592541404848   10.90928678433542
C        15.36201743873168    3.87095737430823    9.35003862584910
H        16.43606380163146    3.94258275026700    9.43441582787658
C        14.68912604434267    4.64686362935834    8.39351253119137
C        15.33879019929129    5.54692706800487    7.50349181261656
H        16.41223461908059    5.64047700357354    7.56837970297185
C        14.63167892924701    6.26396402173065    6.59647945583710
H        15.12732032176489    6.94269775032167    5.91903415641087
C        13.21539076086565    6.14912917278080    6.50933354696101
C        12.43224799418590    6.86843641381103    5.59362865366695
H        12.90569307601206    7.55463942532163    4.90817533470316
C        11.06876354126200    6.68148567014740    5.58544547976460
H        10.44351327614202    7.21739156384259    4.88900007724663
C        10.47430380139021    5.79553173055989    6.49256984025646
C        12.54088562419056    5.27039454109418    7.38354147526789
C        13.28596345148460    4.50570182117871    8.32613781723619
C        12.43963292107589    2.04471749563946   10.89725341618973
H        11.39580733669180    2.08518517027434   10.59152627233239
H        12.52576320542686    2.35983300322503   11.93608840149548
H        12.80188180011255    1.02104816583796   10.82205348390742
C         8.99925497610212    5.57934735673002    6.49700944585681
H         8.73415400199955    4.90020467786611    7.30672873718027
H         8.68751374239148    5.14773008890754    5.54705552537362
H         8.47507696800540    6.52439585106726    6.62752141522162

