95
CSD_code = TAKVIM | q = 0 | S = 0 | Stoichiometry = C39H45CuN4O6 | MND = 4
Cu       12.39039298647008    1.95431862816309    2.70298810871750
O        13.56339612390525   -2.82676475950852    4.01759844594874
O        11.48498171746845   -3.82592168465960    2.27442017048378
O        11.01815725346612   -2.73332698788563    0.04504279123302
O         8.31212112866098    0.82405281429182    6.34162913782936
O         6.51575400399663    1.25398082481232    4.29395712593571
O         7.15436006583393    2.73734414170173    2.21975547769481
N        13.99433753598978    1.95721857496711    1.60319116012890
N        12.36747908225644    3.75712875898705    3.40131558722354
N        12.22531849817647    0.63391833545189    4.31535328215834
N        10.84049510955884    0.96358406177372    2.04859007799866
C        15.87532324609271    3.14545528023635    0.58440511675854
H        15.59228225529302    2.86085385797892   -0.42844714890720
H        16.65654635963488    2.46149979072139    0.91722567844000
H        16.28880583423408    4.14900099266469    0.55805663025354
C        14.67869476242495    3.07344642369946    1.50760083063351
C        14.40160513123828    4.24045568583052    2.22698602638101
H        15.10839219494708    5.04194607896492    2.06488376534124
C        13.37171488516005    4.55290697926629    3.12026339559795
C        13.45720939106459    5.91860972999541    3.76662950314196
H        12.62684968475462    6.54712344874520    3.44334540650687
H        14.38470503177253    6.41755604370224    3.50239797233508
H        13.40763665618629    5.82972339254132    4.85140662868726
C        13.64742905411757   -0.43119766461404    1.21074675809524
C        13.95180042950496   -1.05498406463749    2.40746599843490
H        14.71260784798851   -0.61728952482356    3.03196249194482
C        13.27802021390526   -2.19756939777445    2.82475613858383
C        12.27369801948369   -2.73953543959927    2.01426685153134
C        11.98936032448897   -2.11777000055955    0.78293597654757
C        12.67460054735276   -0.98131698484522    0.38959311460025
H        12.45509060386002   -0.51224887921600   -0.55580449818122
C        14.39336721116853    0.81159934522932    0.80926076655925
H        15.46982385161757    0.61909195711935    0.93061102189539
H        14.21359261700821    1.00903397436302   -0.25881979495065
C        10.13706201752691    3.30497696659129    4.30986355275830
C         9.85118074279568    2.42542482381469    5.34087895932405
H        10.54673198638780    2.33773868470289    6.16028867908459
C         8.67618722874775    1.68328826192805    5.33828448575916
C         7.76864322929307    1.82388792584412    4.28102128868221
C         8.08212502846494    2.68366366242173    3.21745946685621
C         9.25230328729994    3.42846582074538    3.24888789799694
H         9.49278424270851    4.11418375560593    2.45299457381587
C        11.36361123478706    4.17758636996643    4.35605971795024
H        11.04612615163274    5.21137251697374    4.15507232996853
H        11.78208307976322    4.15272093469336    5.37385933765301
C        14.76574802339727   -2.50117129870941    4.66871478431336
H        14.85870473799100   -3.22113258375221    5.48157373440181
H        14.74083664318431   -1.49072228547308    5.08705419780199
H        15.62515284046437   -2.59685522653835    3.99748186895934
C        11.83053480470456   -4.74269135663028    3.28402035226789
H        11.10469250194933   -5.55097651989596    3.19063111951504
H        11.75871893952664   -4.29858105019535    4.27899228290398
H        12.83761315299935   -5.14338490914402    3.14104552154663
C        10.77834887626441   -2.26529360171748   -1.25735478910776
H        10.02122723537548   -2.92968259577256   -1.67153043399388
H        11.68067207861042   -2.31530252680347   -1.87666321965735
H        10.39537663573621   -1.23936959748608   -1.25472669726067
C         9.06365831611512    0.82465595774671    7.52927043209307
H         8.53744927905123    0.15359859866071    8.20721930786399
H         9.10965927656583    1.82415561482981    7.97316102069685
H        10.07941476543250    0.44917893437623    7.36746404266676
C         6.44293963969833   -0.15480177244105    4.28119392974663
H         5.39257811597133   -0.39572090509782    4.43963057967179
H         7.04735151666999   -0.60226086241300    5.07297594111866
H         6.76557501291074   -0.54875382471207    3.31204662755535
C         7.28565382470796    3.73829557436030    1.24286759580837
H         6.40738903384492    3.64272388219336    0.60557438059202
H         8.18806824779149    3.60078911949655    0.63965810126117
H         7.30000535637591    4.73735461954628    1.69080440431328
C        12.89492751230198    0.55058443709185    5.44734331388511
C        12.59088831358517   -0.42149276329797    6.40958288977359
H        13.16778892486921   -0.46847731423047    7.32212596412889
C        11.57687029400900   -1.32575661087259    6.16974658383947
H        11.34641926048684   -2.10206071344589    6.88639175532712
C        10.84542429612114   -1.23681185891742    4.97917924019959
C         9.79797627064910   -2.13213760411235    4.62698865190554
H         9.54352416335978   -2.92004786897893    5.32224403051768
C         9.14636019613059   -2.01193334655309    3.44634530316345
H         8.36920819244942   -2.71025755417471    3.17191130079905
C         9.45762290730245   -0.96266307947030    2.53569568239552
C         8.77722956679057   -0.75885602273918    1.33036798631260
H         7.97236071901718   -1.42014637971607    1.04467299734047
C         9.15418263664857    0.29109775859866    0.51616917434168
H         8.63431427079793    0.47597867381819   -0.41292746331777
C        10.20293839311064    1.12760447392286    0.89730775151935
C        10.49128707731873   -0.05727582741178    2.85749038034624
C        11.20476554873706   -0.21066137975553    4.07614178461779
C        14.00454333525053    1.53038679121362    5.66239783821348
H        14.15806522402053    2.09807925107852    4.74675694356794
H        14.92640778313225    1.02281133239768    5.94394341729108
H        13.74602120385514    2.21901569004614    6.46655947749565
C        10.68391869037730    2.23317825176157    0.01323356931098
H        11.50804143574579    1.87105510668020   -0.60161133472224
H        11.07684367306227    3.04296867829441    0.62609006154508
H         9.89721336627427    2.59293303731884   -0.64679267052965

