43
CSD_code = TAKWOU | q = 0 | S = 0 | Stoichiometry = C17H19F2N3OPt | MND = 4
Pt        3.04155001086666   11.52030424938346    2.46214652001023
F         5.42030288339423   15.20267750892792    5.73482184711515
F         7.93100521589775    6.09867090523259    6.52256180677354
O         2.29537264023296    7.53250867247621    1.22558564166462
N         1.63602341834757   12.69746620737869    1.56613507709537
H         1.29018772908197   12.24808746935623    0.71473427786773
H         0.84778034629853   12.82246132167624    2.20822748755174
N         4.49842081990696   10.33343650795839    3.35223644660416
H         4.95150624640712    9.81290170333727    2.59404919235121
H         5.21586431292986   10.89466272010015    3.81727598529010
N         2.28682875333545    9.87074035185223    1.52173577571555
C         3.63477172959963   13.28665585546955    3.21488942334266
C         3.09929611703062   14.36587381489351    2.48388300096582
C         3.33399062481170   15.68472125584768    2.83076979128719
H         2.90430584006423   16.48579617157578    2.24551429481776
C         4.12166165618199   15.98461606002250    3.92941067625283
H         4.32379484647108   17.00171785202538    4.22384135735901
C         4.64667340822148   14.93289634486341    4.65277240140485
C         4.41558598828139   13.61036668164073    4.32119326997736
H         4.85612791496967   12.85253480519236    4.95411841392640
C         2.28199153936221   13.99288573100007    1.26787576212392
H         1.53166810544638   14.76271650909898    1.03654518200663
C         3.19974931297585   13.78602090912829    0.06392598734946
H         3.79490865552002   14.67689428854539   -0.11524471275270
H         2.62557919466995   13.56049472777525   -0.83259448362403
H         3.87180352708897   12.95056385477271    0.27962914586352
C         5.00848646222679    8.49668760737608    4.91783465936362
C         6.05660090093895    9.05207063519527    5.64455667076043
H         6.10966367289156   10.11986957573879    5.80194021508736
C         7.04426342764738    8.25170017284230    6.18765327953446
H         7.86008284926784    8.67175860708171    6.75405719497834
C         6.97185339071758    6.88385404594640    5.99499299822278
C         5.94468079521358    6.30261795278395    5.27441207241607
H         5.92003620642135    5.23321870794382    5.13999068142463
C         4.96692257848029    7.11944565162143    4.73616629266549
H         4.16179137701832    6.68147488582066    4.16559608382518
C         3.92882922494953    9.36913295427673    4.31851909456241
H         3.23051487809948    8.73491864514000    3.76223951283334
C         3.14553610012225   10.13340283360979    5.38340256229397
H         2.62738307992962    9.43727560592349    6.03672750549661
H         2.40953861869855   10.77432625448506    4.88809279684355
H         3.80120351875098   10.75271668736092    5.98965918621238
C         2.31186208122482    8.70025669731436    1.39011962517164

