52
CSD_code = TAKYEJ | q = 0 | S = 0 | Stoichiometry = C22H23MnN2O4 | MND = 6
Mn       -1.51479916333163   -1.65830533126874   -4.02655338035885
O        -1.68804594163715   -3.50307886441843   -3.69771714419684
O        -0.95907196562314   -1.40672293955997   -2.27920105813412
O        -2.01961928649137   -1.83436427658569   -5.89755317163626
O         0.37337919897307   -2.06583818822655   -4.50127899762920
N        -3.42428602294692   -1.33157571108812   -3.62967398666609
N        -1.12523258722505    0.24951072926260   -4.28046631781429
C        -2.56576259139235   -4.09773182092890   -2.97245965594727
C        -2.33691116314551   -5.43636361087089   -2.56774325486806
C        -3.22819798097816   -6.11127450567731   -1.77345974683943
C        -4.40948173051349   -5.49867127886607   -1.35266959144924
C        -4.67937165518667   -4.21059327249563   -1.74810319293642
C        -3.78709743341571   -3.48359047337493   -2.54991351279923
C        -4.16517049472459   -2.18196760584802   -3.00138415227043
C        -4.12658771488689   -0.20256882404873   -4.21904369987739
C        -3.36339557747502    1.12250485199821   -4.21743774458481
C        -2.06182768626484    1.05463865874011   -5.02811458748004
C        -0.14918455331271    0.86292742063267   -3.68531103228489
C         0.64050936579490    0.30320875736819   -2.64208626569105
C         1.80834585696043    0.93788629460756   -2.19325188735032
C         2.50370826583040    0.46333795683110   -1.10965790218252
C         2.02074273989524   -0.64897406056175   -0.41205772786110
C         0.86366836679176   -1.27423166205607   -0.79721312985416
C         0.14438737470745   -0.84615333343137   -1.93915470903705
C        -1.96702922655518   -2.27432441725377   -8.22714371541308
C        -1.27887562570863   -2.17961507114914   -6.87838755588517
C         0.07828871092611   -2.44779463877465   -6.81478013824756
C         0.82864432140504   -2.38265451552394   -5.61801811987876
C         2.30351092872107   -2.71570703751999   -5.71033361121102
H        -1.42040140450846   -5.90182936565375   -2.89910779155347
H        -3.01629961921705   -7.12725275713483   -1.47166388891307
H        -5.10677733678145   -6.03732769468445   -0.72911327285826
H        -5.59934713662013   -3.73389502552514   -1.43641251548278
H        -5.21648548301017   -1.92831949459285   -2.82644494952853
H        -5.08907886162135   -0.05123710123313   -3.70959029810930
H        -4.33346161622316   -0.47469213689534   -5.26249777922456
H        -4.01489571450842    1.88636264349756   -4.64678057903252
H        -3.12278538215728    1.40728301048122   -3.18997652526286
H        -1.67086683620180    2.06990667316504   -5.18915039724616
H        -2.25733882684127    0.58428176160938   -5.99727024632235
H         0.04783534095568    1.90921345375431   -3.94014824979527
H         2.16484587797761    1.80506126638527   -2.73280777395463
H         3.41441867963278    0.94627471022095   -0.78944365406215
H         2.56900687031913   -1.01704750427058    0.44341850745979
H         0.48509090124776   -2.13371227270526   -0.26464851856690
H        -1.69960216114119   -3.20105244632005   -8.72717510134264
H        -1.65778125917067   -1.44275991472042   -8.85889843894451
H        -3.04481439513135   -2.23292751999918   -8.09042021129611
H         0.58859777434884   -2.74130526495216   -7.71909061089433
H         2.78432915138511   -2.09257332958797   -6.46108721885660
H         2.42684038332978   -3.75704606127268   -6.00032567695742
H         2.77363432474591   -2.55401885947796   -4.74399581886847

