55
CSD_code = TALJIA | q = 0 | S = 0 | Stoichiometry = C24H20N10Ni | MND = 4
Ni       -3.66101577475509    3.48989838840529    8.91231316942268
N        -2.52587077749326    3.79699285817826   10.36151252959172
N        -1.40014473397016    5.75494700687327    9.69725759773980
N        -2.98102184466085    5.03346893441489    8.11024619401433
N         0.71592043803631    4.88413246046125   14.08436913834562
N        -0.90922531160431    9.25199708669657    6.23412872410903
C        -2.06490580938713    5.86138151060775    8.55273758430382
C        -1.65677349342486    4.76299195903715   10.54096721348117
C        -1.68267620574596    7.04384388883589    7.74185311184314
C        -2.58749225146604    7.69658116350783    6.90761601559231
H        -3.62108517023240    7.38786281660274    6.84113247855207
C        -2.14662208819117    8.79301964219067    6.18318487085083
H        -2.81865799906475    9.33155102002199    5.52759037025695
C        -0.05216384262425    8.63867198728622    7.03283768166903
H         0.94744762647556    9.05258889406603    7.04919579036921
C        -0.38347752519239    7.54048333765512    7.80854100713576
H         0.33548914026157    7.06661050964774    8.45557876815178
C        -0.84689435830235    4.80285920440715   11.78365181847810
C        -1.34780351339936    4.36482993593797   13.00737529620445
H        -2.36333248918560    4.00886602025775   13.10725744179495
C        -0.52502200580734    4.43322352190498   14.12073878831235
H        -0.87681756524035    4.10947137877591   15.09173380372527
C         1.18920250159209    5.30727176766810   12.92442930909973
H         2.20712601997725    5.67379289181476   12.94250090524932
C         0.45478007474860    5.29559307162176   11.75042285261517
H         0.86665491845168    5.65339206799762   10.82162917374470
H        -3.33388642801908    5.31010885828770    7.19293444193843
H        -2.53237981088886    3.14032485499064   11.14347774139266
N        -4.79611337249079    3.18277098930577    7.46308621554160
N        -5.92189511502274    1.22485906738396    8.12737005625861
N        -4.34105628018524    1.94636263563906    9.71440846232872
N        -8.03743282757486    2.09527034807097    3.73992381997707
N        -6.41334062490176   -2.27179794891386   11.59081860043525
C        -5.25721995821016    1.11848775993539    9.27194560527153
C        -5.66517243739919    2.21674263816888    7.28360449356449
C        -5.63959835010972   -0.06386469688629   10.08292159815831
C        -4.73488932964144   -0.71660617390078   10.91727140592519
H        -3.70127113440464   -0.40797998133719   10.98378196586303
C        -5.17590268320081   -1.81293299064877   11.64178404611989
H        -4.50395478379186   -2.35146538081572   12.29746753228496
C        -7.27030131273263   -1.65846689818966   10.79200616250207
H        -8.26995021659861   -2.07229230437641   10.77563431808965
C        -6.93884116456594   -0.56038553476620   10.01621339210267
H        -7.65773017317807   -0.08650564476867    9.36909548689865
C        -6.47490468573160    2.17676435099555    6.04082798772747
C        -5.97385792281730    2.61471816510138    4.81713356802110
H        -4.95832821619564    2.97070539517398    4.71734802675388
C        -6.79649968713462    2.54621551631557    3.70367368884941
H        -6.44459711109140    2.86990764917548    2.73269793418855
C        -8.51084367633813    1.67220048120442    4.89983644470538
H        -9.52875334315230    1.30564598044142    4.88166529388162
C        -7.77656684755402    1.68398973478037    6.07393290302645
H        -8.18854231988878    1.32624266460403    7.00270105458879
H        -3.98824750868442    1.66976540661706   10.63175472003230
H        -4.78954063829060    3.83939173353734    6.68108139891901

