69
CSD_code = TALKAV | q = 0 | S = 0 | Stoichiometry = C29H35ClIrNO2 | MND = 8
C         2.36184211601213    2.79106867382791    3.74159313403423
C         1.58633337769583    1.63713453217373    3.44487012590688
C         2.09603625139238    1.05937096008502    2.20895482753903
C         3.09725729218949    1.89462497244013    1.71680100972573
C         3.20948364695936    3.03095985322944    2.61020499958086
C         2.41432880105868    3.54463815170038    5.03321835523044
H         3.31069734189241    3.25246678535288    5.58349124723087
H         1.54957502198650    3.32529106123176    5.65304704524896
H         2.45297564822710    4.61918947378595    4.86683541790407
C         0.65613379378060    0.91276669781260    4.36678767730649
H         1.17496860519748    0.07608427796299    4.83898056908018
H        -0.19509968383557    0.51878691358749    3.81504827518444
H         0.28157921443715    1.57145791542526    5.14632316738250
C         1.63710390361875   -0.25201653077226    1.66305841234677
H         0.55483334334937   -0.24947270839379    1.53469253022992
H         1.89254019729587   -1.05650854223724    2.35437966623200
H         2.09893883548751   -0.46126231756707    0.70117822086996
C         3.99710785230537    1.65379016602653    0.54861544829556
H         3.56981437426257    0.92721669402839   -0.13798725989015
H         4.95891796208824    1.27302502393731    0.89854166939480
H         4.18197273735106    2.57244557060778   -0.00610759430417
C         4.30742730993458    4.04606587826506    2.55695162691656
H         4.02782504701583    4.94924938494626    3.09466866050531
H         4.54448251197354    4.31403376643292    1.52913823808767
H         5.21126420581280    3.64106636447818    3.01707298666635
C         0.15548077835556    4.85785116684758    2.49341867029678
C        -0.37993565370124    5.13714163283333    3.74050119580269
H        -0.33757797639306    4.40957726898123    4.53501342820130
C        -0.99502330441007    6.36179926784266    3.99302180993844
C        -1.11987045083257    7.31959327011597    2.98015554082706
H        -1.61186669982602    8.25170725914852    3.21196599219457
C        -0.63526504351167    7.05517553988681    1.72231900166324
H        -0.74635598462094    7.77300354802702    0.92287614380596
C         0.00513009955458    5.83567443081760    1.47600072865325
C         0.54374390391276    5.41990046404195    0.22313240081541
H         0.47206979313636    6.01482889622947   -0.68174276129730
C         1.68186622716510    3.72212087725166   -0.94094434644670
C         1.36537842646343    2.42928406513838   -1.35391603668353
H         0.62998631923739    1.86810503783496   -0.79748951732018
C         1.96811865286487    1.89569097410079   -2.47208916035130
H         1.69349220859254    0.89594320109130   -2.77196389519192
C         2.91362140569836    2.60958005748118   -3.20863664674084
C         3.56901471455290    1.95662472910657   -4.41413741433774
C         2.48431940005099    1.60159876253084   -5.44083401081918
H         1.75759007610069    0.90798210881782   -5.02762313335667
H         2.93540296560600    1.14087636074414   -6.31697970330296
H         1.95676353487123    2.49948734709488   -5.75584778951565
C         4.29137758082960    0.68123929017033   -3.95588541173853
H         5.03851313454937    0.92186299817024   -3.20197791372378
H         4.79186311413221    0.21120515943554   -4.79950119559985
H         3.59661445163269   -0.03785359720309   -3.53108295528534
C         4.59396439604440    2.86675738413321   -5.09611294940762
H         5.40029310319406    3.12958397317305   -4.41499605488707
H         4.12624555442800    3.77643809601963   -5.46534075904158
H         5.03017434788535    2.34629037872193   -5.94616774729112
C         3.21506320362683    3.89951085819755   -2.78771024940617
H         3.93694885979174    4.49637827189821   -3.32069034357776
C         2.60687612571099    4.45592561550637   -1.67654531457055
H         2.86900354393580    5.45483931257668   -1.35713857685294
C        -1.54496232323029    6.68839120997153    5.32775609928331
C        -1.83638916169828    5.96706120917781    7.53325067919522
H        -2.92051283457594    6.09228494510373    7.49267069190677
H        -1.39617208884902    6.87385691087401    7.95416649845523
H        -1.57472434798622    5.10018074704344    8.13493965232516
N         1.09643967752782    4.24331304628257    0.21821537855649
O        -2.12993853359246    7.71073068066357    5.59543023479746
O        -1.31879671716431    5.72261771146221    6.23590245574321
Cl       -0.99558387879764    2.30118004990746    1.35237980904219
Ir        1.10807969227633    3.16768646440285    1.91997901854483

