57
CSD_code = TALLEX | q = 0 | S = 0 | Stoichiometry = C20H30B2MoO4 | MND = 10
Mo        0.60482561717733   -0.00007663103005   -0.00004471559809
C        -1.26395571714730    0.15142490579604    1.49792004920683
B        -1.50329240020371    1.37237899228494    0.54579056439590
C        -1.22507798395664    1.13751409308702   -0.97826568709952
C        -1.11024638948210    0.40424609939748    2.98826568922903
C        -2.46139091986542    0.56895227197393    3.69480565398340
C        -2.07436759511956    2.76967965261540    1.07931846418287
C        -3.61180728096772    2.76978550133306    1.02937067422548
C        -0.93852001511834    2.34996651493194   -1.85290534390290
C        -2.17246969576051    2.90684325970581   -2.56492920954343
O         2.71725154197963    0.84559095601423   -2.08295879201480
O         1.19186767268403    2.79329872846103    1.20566411650285
C         1.94237269798787    0.53147735867259   -1.29954788659217
C         0.86523995957716    1.79078236001546    0.76180687891134
H        -0.56532688589757   -0.40988532733557    3.46868017260146
H        -0.52739094095198    1.31578342898689    3.14939262659893
H        -2.88528311413778    1.54921981864316    3.50346029019853
H        -3.17371875217694   -0.17795712852512    3.35297289796039
H        -2.33475804923407    0.46144715148469    4.77021133724151
H        -1.76944654561426    2.97961617589190    2.10647550235300
H        -1.72841633433648    3.61771507116082    0.48484053746811
H        -3.96394617646037    2.64230944323427    0.00855495495479
H        -4.00732657774699    3.70840742695063    1.41319343472434
H        -4.02173902160948    1.95455133879760    1.61982412693404
H        -0.52554894680316    3.14455340981923   -1.22583327164125
H        -0.17483716211592    2.11905585496209   -2.60160772061173
H        -2.96048005957766    3.12671760789190   -1.85030122284092
H        -2.55539524753930    2.20334734194599   -3.29731819864850
H        -1.91428216880841    3.82829144959332   -3.08301842920609
C        -1.26395263529391   -0.15139624352014   -1.49791370473302
B        -1.50332274433455   -1.37233495961017   -0.54578117152535
C        -1.22513436980920   -1.13748670495203    0.97827816412199
C         1.94238571106020   -0.53132741334496    1.29953857935925
C         0.86524271290026   -1.79097981603741   -0.76192389010459
C        -1.11025221205657   -0.40424664454051   -2.98825104129002
C        -2.07435256387528   -2.76964714185490   -1.07930293486550
C        -0.93856692711220   -2.34994256322070    1.85291267008287
O         2.71726591024472   -0.84538660920665    2.08296495183770
O         1.19183391452955   -2.79351665233953   -1.20580934969192
C        -2.46137861696235   -0.56898676591846   -3.69481805815005
H        -0.56533139825014    0.40987499693904   -3.46867223258490
H        -0.52738847764929   -1.31578408823707   -3.14933965397467
C        -3.61179005408655   -2.76975075262796   -1.02935541913166
H        -1.76942370946230   -2.97956813914896   -2.10645877984155
H        -1.72839292968782   -3.61768145346737   -0.48482595465273
C        -2.17248133407848   -2.90685929778845    2.56496449091003
H        -0.52561146413262   -3.14452136739789    1.22582179193982
H        -0.17486392209321   -2.11903407287869    2.60159831721651
H        -2.88525503196557   -1.54925769903713   -3.50345573768230
H        -3.17372691203767    0.17791774080077   -3.35302019852146
H        -2.33472093323806   -0.46150735861451   -4.77022556746533
H        -3.96392011748648   -2.64225978936850   -0.00853872369738
H        -4.00731344041423   -3.70837513526436   -1.41316720681761
H        -4.02171745609168   -1.95451811513914   -1.61981430580471
H        -2.96053297387684   -3.12670583380773    1.85037081425604
H        -2.55537887940886   -2.20341971871468    3.29742448502666
H        -1.91425265410901   -3.82833552846566    3.08298217181166

