61
CSD_code = TALMOL | q = 1 | S = 0 | Stoichiometry = C23H28ClCoN5O3(1+) | MND = 6
Co        2.50857028101789    7.93852570357595    4.64498858246564
Cl        3.85882610463073    9.27728236008332    5.71617300175229
O         4.57633920490133    7.45391435949333    2.71545327632502
H         4.67334499572713    6.71677246616148    3.43562613584111
O         4.36331817197582    5.94241143868262    4.69990407207545
O        -0.47911727458162    3.62779416364738    0.17302044070732
N         3.58214310405859    8.24220210877047    3.12523864356252
N         1.59743184540055    9.54317819356501    3.96294006543388
N         1.50806689764428    7.77577993562113    6.25895758762129
N         3.47060514692380    6.54136874239310    5.36576971721895
N         1.31768163755740    6.66014419491126    3.65222555864606
C         4.17495520703817    9.76504318381553    1.30612343297388
H         4.63410571330004   10.73109776022386    1.51045779313937
H         3.56599050384123    9.85358027850403    0.40764093047428
H         4.96159211010445    9.03676901550623    1.12686646434288
C         3.35210322728315    9.33359803175076    2.46962795582112
C         2.21775626830358   10.09415905024889    2.97734449006452
C         1.84710225260963   11.39848909665367    2.35537181402240
H         2.01953539202601   12.20600221705565    3.06785011065501
H         0.79332224171188   11.41190738484806    2.08060588475052
H         2.44103584288597   11.59739369971510    1.47091626079299
C         0.46707864094116   10.17363948733381    4.59365011035369
H        -0.44261645451553    9.69188084498517    4.21271360362906
H         0.42094909734779   11.23933292364522    4.35546850997686
C         0.52174409543381   10.02523348411893    6.11355917029876
H         1.47497141240448   10.41376718962495    6.47390318674917
H        -0.28217803158034   10.62284326801084    6.54369805891867
C         0.36061598348321    8.58282580967367    6.59172952284979
H         0.19961758725661    8.59947918358434    7.67206529988527
H        -0.52173257794444    8.13623496847046    6.11481192380069
C         1.56703197749830    6.74511661395514    8.50674163480452
H         1.70396072323304    7.65623013933450    9.08947041796792
H         2.12584745296180    5.94988331803950    8.98721294203227
H         0.50877687305060    6.48882715195070    8.51976031677242
C         2.05002108316867    6.96361270618430    7.11217608454444
C         3.17221698257244    6.22699174265214    6.59836888371276
C         3.92560963834400    5.17499981116473    7.34421445190923
H         3.27433556178485    4.35376725357548    7.64009848340745
H         4.38525850077873    5.59716937210420    8.23612962638680
H         4.71075502075523    4.78552087498471    6.69983431832632
C         0.93482164104503    5.49439602289637    4.18127187078250
H         1.22526252074374    5.29379879526305    5.20184094894646
C         0.20089647370226    4.54728116469556    3.49090133567115
H        -0.05628032580416    3.61549871714133    3.96951468672239
C        -0.17074160556029    4.80148103379508    2.17500225395691
C         0.22321836236877    6.01759644704298    1.62528636935008
H        -0.02763815874709    6.25200916374465    0.60271177731269
C         0.95010580705063    6.90713039877703    2.39095695233222
H         1.25192443226852    7.85095165403686    1.96213645040969
C        -0.87042996493155    3.79010888705468    1.30657874021425
C        -1.98926710251296    3.04378787505441    1.90253940840712
C        -2.36190571173734    1.83510298047097    1.30891900269896
H        -1.80373765767662    1.48742460219620    0.45287973863787
C        -3.41509768542655    1.10362085132330    1.82064856958226
H        -3.69250740092943    0.16633452179228    1.36409901784289
C        -4.11992253811717    1.57936290892189    2.91598609332100
H        -4.94730210267773    1.01186802334112    3.31348051170947
C        -3.77176529474343    2.79007600694951    3.49687027853994
H        -4.33480949164191    3.16523957822118    4.33808812585600
C        -2.71023672314120    3.52101682061682    2.99926492438857
H        -2.46225991486553    4.47624401804349    3.44041417831103

