46
CSD_code = TALSAC | q = 0 | S = 0 | Stoichiometry = C17H22Cl2N4Zn | MND = 5
Zn        1.81257700635829    4.12415059535716   13.03620909897193
Cl        1.83705123286403    4.39747056858297   15.24965642334190
Cl        2.75182949511680    2.75053246228980   11.49515184657110
N         3.38554522163184    5.62730459537010   12.60116940868968
N         0.56875320100444    5.53233319772308   11.92954002209195
N        -0.18571967884260    3.08352325230240   13.04265873931535
H        -0.60752961949824    3.38249301546786   13.92200249617919
N         2.05990797473912    0.41908094888909   16.53646474383597
C         4.55386269311456    5.28142465143208   13.12104442945025
H         4.52216491917238    4.51670173911052   13.88526686291967
C         5.75112110808791    5.85480022923548   12.72949940391236
H         6.67909502557610    5.54128881190206   13.17912153814338
C         5.71601597821471    6.82612117443048   11.74474150087270
H         6.62477013995004    7.29394359658210   11.39593993250110
C         4.49241008129718    7.19744354329635   11.21166306260306
H         4.45093554587558    7.95677780245765   10.44919540353317
C         3.33365016748300    6.57947769538642   11.66787911963403
C         1.95944000774796    6.93523456993891   11.15610259800532
C         0.91406030746315    6.91335612280154   12.29168658586973
H         1.27994161074038    7.01993924813086   13.31214660473885
H         0.09203025402439    7.61285870573944   12.11077531424789
C         1.21475270260690    5.69328617600781   10.61779587401115
H         0.50046574218841    5.94987175530355    9.82866091019221
H         1.82038377906111    4.84127498756989   10.31347566930447
C         1.92426180857064    8.15794241708242   10.25433926461047
H         2.34246038405498    9.02417635952438   10.76220482156279
H         0.89592857282857    8.38766468352933    9.98334383357131
H         2.47904182241606    7.97562669458551    9.33689097387193
C        -0.82947725895347    5.15552697092129   11.96778938421066
H        -1.38980269239411    5.59908284892164   11.13138735406614
H        -1.24727687528192    5.52891910610774   12.90788277177175
C        -0.94853364630018    3.63364376413090   11.93293127217794
H        -2.00777313249350    3.33859006359054   11.96833875099692
H        -0.50936906407674    3.25384260714498   11.00629250720697
C        -0.12481670985437    1.61996924764605   13.04827426653046
H         0.39558488700756    1.30147568626519   12.14235626862992
H        -1.13815346037442    1.18748034929997   13.05291589245488
C         0.63762480564071    1.17002100683432   14.26465597061300
C         0.07303647786505    1.26839701010442   15.53160968363865
H        -0.93369230248658    1.63818956957651   15.66566758556006
C         0.82683471410232    0.88396315841573   16.62810078842716
H         0.42519852635867    0.95198602906038   17.63072934080250
C         2.59671995164523    0.32697628194396   15.33315230993026
H         3.61000229351816   -0.05243911979855   15.30139783599282
C         1.93498029916248    0.68402102478328   14.16766582733654
H         2.41840570306722    0.59195479502415   13.20792570710503

