55
CSD_code = TALTEF | q = 0 | S = 0 | Stoichiometry = C24H24ClN5Ti | MND = 6
C         5.30066793554574    2.54672116326055   13.35102368874298
C         6.33716881872334    3.10394192122622   14.13228942977717
C         7.02697982500036    4.18213421110292   13.63387792368474
C         6.69920548354925    4.70022149722163   12.37970955158168
C         5.69261573450746    4.08572823508150   11.66082304438031
C         1.29541595901291    3.00971185558945   12.64837603556541
C         1.65290176534660    3.32012323910564   13.96682811923835
C         0.71230663457920    3.79001165025427   14.86004423312467
C        -0.60693144694131    3.95654838237643   14.46662052098149
C        -0.97787735611365    3.63025133261118   13.17277625865967
C        -0.04475621280878    3.15818738410069   12.27004010690041
C         2.34412995276257    2.68871394613440   10.49342034937233
C         1.71160798893477    3.65983588963236    9.67880186869544
C         2.03573246681245    3.71068195091696    8.34682453401284
C         2.97602007074910    2.82032821508536    7.81556176454727
C         3.57437744685895    1.91420305878961    8.66645139233556
C         4.57325369107266    0.74317845586348   14.80089876687493
C         4.49433093918091    1.33495619352216   16.06484232443528
C         4.47648056723770    0.54613607055240   17.20041461182444
C         4.53642749983753   -0.83331782394107   17.09969074654164
C         4.61004001605460   -1.42818472474649   15.84851625711590
C         4.62661419225137   -0.65270914674350   14.70679966656580
C         1.69624679347916   -0.37211632824445   12.99331077250985
C         2.70344361400690   -1.32341797369017   11.05058600517038
N         5.00687800965292    3.04844885160522   12.12208370295037
N         4.54078905260112    1.47105155443423   13.62023979988055
N         2.26464776889154    2.49600945115621   11.81258185792846
N         3.26455080054416    1.83950912665545    9.95613129718303
N         2.74291376798075   -0.24506549112444   12.00910985097486
Cl        5.67054113662982    0.25226036146521   11.04410455973249
Ti        3.81971619035092    1.21138201042394   11.84925235324138
H         6.59190746832854    2.65976645690491   15.08228907446312
H         7.82778969638808    4.62437089753415   14.20909746918993
H         7.22718304694902    5.54729967316160   11.97363616603939
H         5.41390080562970    4.43549074276248   10.67161469179912
H         2.68575203014244    3.18264378789416   14.26485905448905
H         1.00656190427133    4.03000233387326   15.87170242827909
H        -1.34101430009005    4.32714008948153   15.16575909977000
H        -2.00807426155896    3.73802524170101   12.86440745024980
H        -0.35192782512122    2.86937997598912   11.27465493796494
H         1.02184746001238    4.36395260376254   10.11759086222669
H         1.57272988260035    4.44799583084989    7.70644644611500
H         3.23600537111075    2.85011832921757    6.77033159274346
H         4.32754153844880    1.21390578712975    8.31806559416089
H         4.42476163243626    2.41098133657183   16.15060383202483
H         4.41207871492661    1.01410895333683   18.17225921694897
H         4.52448665277565   -1.44239917492928   17.99094200962961
H         4.66050234109582   -2.50439361041113   15.76772945781364
H         4.69480125392052   -1.09575258325898   13.71634736885090
H         1.78231659165196    0.42253195599184   13.74058505744060
H         1.75795445718220   -1.34435273550036   13.50771657466492
H         0.70102056140004   -0.30683606213958   12.52159233188208
H         3.54655550931687   -1.23832694392909   10.35868338241445
H         1.76296416869616   -1.30119673496607   10.47353914809788
H         2.75951619319387   -2.30052067066898   11.55731535823832

