57
CSD_code = TALTAB | q = 0 | S = 0 | Stoichiometry = C22H32Cl2Ti | MND = 12
Ti        8.30706277053675    4.88080604514348    9.45094178768708
Cl       10.16978009573754    6.11520297091710    9.32551436532999
Cl        8.66845930126795    4.59496528779223   11.62117249105318
C         7.76805191135078    3.37336067546702    7.72287209802133
C         9.14523223359879    3.69227638340529    7.63553307029821
C         9.81666522842348    3.13708122313950    8.75879521112879
C         8.82263602330430    2.54523444856933    9.56852257487873
C         7.55680544639959    2.69815942244616    8.95347137218020
C         6.74187881278637    3.71988002642531    6.68212721376830
C        11.30242315889235    2.90892322944288    8.93794663351385
C        11.74575590422145    3.26465554530326   10.36205707319142
C        12.12669309248597    3.71037851205772    7.92662630944923
C        11.55092116486677    1.40868350838048    8.69387872960971
C         6.32413369299217    1.99166797247041    9.43813221533252
C         6.71021324151070    5.79049409412349    8.03398979723693
C         6.03462690287355    5.29046551117873    9.18001014339075
C         6.37666761558367    6.08847384770306   10.29836097765797
C         7.31941599823731    7.04033342956192    9.84353351848640
C         7.51008827253516    6.87764146179802    8.44670158981719
C         6.56447498931758    5.25018413955927    6.64056031513653
C         5.61341020505935    6.12148029942679   11.60501413213197
C         5.30246676960550    4.70690992321458   12.10711975965549
C         4.28991317369537    6.85421191212660   11.31591184368235
C         6.37693425722602    6.89113993688934   12.68636694149616
C         8.27625682741545    7.80598441201150    7.55343823226542
H         9.62190851474881    4.14182510339334    6.77406713300922
H         8.99579374313287    1.96521354861647   10.46556128790503
H         7.05854423480549    3.35094020436836    5.70227976509496
H         5.79124001506411    3.24020693434591    6.92428180905714
H        11.58671642992718    4.32362183288335   10.55651363366445
H        11.18817005175233    2.69258687829402   11.10091497440512
H        12.80428922997764    3.04646226929489   10.48736774236171
H        11.92318464697936    4.77343928551582    8.02283523761429
H        13.18674985273683    3.54599808726261    8.10653059633431
H        11.90326762011776    3.39406174171103    6.90968813675612
H        12.61468564579556    1.19298581845902    8.76318733547533
H        11.02739032930199    0.80380292797966    9.43005355197376
H        11.20263337042877    1.12173914664090    7.70357154466682
H         6.45794719547732    0.91340391636017    9.32475435313207
H         6.15339254138715    2.19602262239332   10.49558011411857
H         5.43775363135055    2.27512238790547    8.87443597115359
H         5.23052398832133    4.57027199082662    9.15334369644761
H         7.75809909657603    7.83645631508751   10.43108127550330
H         7.32652842176123    5.69546138610581    5.99594063957737
H         5.58431055281365    5.50894205370163    6.22626051020815
H         4.67669185731999    4.16861588634441   11.39828020132978
H         6.22700989168198    4.15364525860113   12.26308636496451
H         4.76805148427587    4.75998513215198   13.05321280795121
H         3.70480377347145    6.31779490128684   10.57218512244128
H         3.70196144890924    6.93481937040915   12.22737876918442
H         4.48511756188426    7.85583806918804   10.93898774793153
H         7.36046977283483    6.45537623558443   12.84276188751933
H         6.49310589980440    7.93622973385904   12.40875138900526
H         5.82839452810542    6.85068324177094   13.62488535789392
H         7.57975632017968    8.41952362978506    6.97693654000915
H         8.90972206919652    8.46360253465260    8.14496510944351
H         8.91171918995820    7.26022733666837    6.85462099746592

