53
CSD_code = TALWEL | q = 1 | S = 0 | Stoichiometry = C27H18N5NiS2(1+) | MND = 6
Ni        7.80155052691752    7.52656093987435    3.53613236173151
S         6.26949956891949    6.95496328688425    1.83853973974703
S         3.89333926927062    8.65949980078790    2.92015545237341
N         6.23906256132861    8.43995904964065    3.93176462399459
N         7.00986462165412    5.91624001649599    5.05078733497453
N         8.74110411247734    7.99021430089516    5.35947604030753
N         8.68075446910131    9.22603187458558    2.29169583584022
N         9.20505416508147    6.60685991829811    2.79270813366058
C         5.50709774883629    8.02026765432778    2.91496646447952
C         5.56273488099319    9.27437726319184    4.75879154195752
H         6.04554624519260    9.68595468923585    5.62778364951571
C         4.28640123439723    9.51216888330671    4.37689626756015
H         3.55370242685893   10.13140763114180    4.85055919094008
C         6.13478513291179    4.94817330326646    4.88641313902371
H         5.85786674722011    4.71962894438466    3.86483074980187
C         5.57927580711863    4.23261233571279    5.95341653664821
H         4.86032298429505    3.45316568242573    5.75898418370340
C         5.97190158741813    4.53571739954787    7.23417968048124
H         5.57567604881272    3.99885762167461    8.08326718321022
C         6.90799366524163    5.56488240526835    7.44033116474955
C         7.37706051989958    5.94014284764731    8.73187831555776
H         6.99754269953384    5.40421235259200    9.58863018546687
C         8.27733684548053    6.94099452799322    8.88109109220546
H         8.63641870190391    7.22129623324090    9.85966290015554
C         8.77127202187397    7.66208933949490    7.75544803554775
C         9.68724888482855    8.71992341762077    7.87713313042326
H        10.04784312242512    9.00412251943679    8.85445013284272
C        10.10441360117605    9.37643596293852    6.74505448848215
H        10.80616555093326   10.19299322692902    6.79932006180356
C         9.60100907095921    8.97866581480166    5.50382898449537
H         9.91085441216640    9.48970861147142    4.60195368508715
C         8.32636817828184    7.32434594425599    6.45716924333209
C         7.39061708460197    6.24194251670908    6.30002187695580
C         8.35897705394512   10.47104458394771    2.01523444023514
H         7.62733135783630   10.93612189451161    2.66356634181582
C         8.92020118396341   11.18788087545482    0.95257887655405
H         8.61023175376285   12.20419901417879    0.76990033967848
C         9.86801433908166   10.58123473443251    0.16472760611272
H        10.33386112459012   11.10662118588710   -0.65550567293504
C        10.23454789683399    9.25112662669597    0.43499578485101
C        11.21213638404673    8.54246035913481   -0.32025773501807
H        11.69613550630241    9.05471992968418   -1.13773340873839
C        11.52781114030310    7.26013619875517   -0.01912786278028
H        12.27412520489822    6.72644861041502   -0.58726155403354
C        10.87691116485608    6.56663967844969    1.04255999561335
C        11.15820424128599    5.22733178769553    1.35622402878676
H        11.90361029408752    4.69012138482148    0.78991967221020
C        10.46648774809940    4.62329325652529    2.37756640783534
H        10.65283794752491    3.59665179510236    2.64831852562741
C         9.49084780500371    5.34661484034634    3.06555767303609
H         8.92393884042203    4.87367927754347    3.85702469956738
C         9.89159420275968    7.23195223663327    1.80591436643469
C         9.58971031228586    8.60490541370777    1.51097606808869

