44
CSD_code = TALWAF | q = 1 | S = 0 | Stoichiometry = C20H17N3O3Re(1+) | MND = 6
Re       -0.23097115168919    3.37530170310511    9.30088042416504
N         1.10234371837530    2.11827474027150    8.09832846691588
N        -1.57032147215556    2.39345003091664    7.87042378231774
N         0.12278142661177    5.74912729801212    7.18894473156853
O        -0.62880980786302    0.93571926857784   11.17820912870863
O         2.02231351631896    4.55981165567585   11.07365603795589
O        -2.46244035257356    5.00120517364559   10.71481222269360
C         2.41218378367578    1.98766294137207    8.22224662758591
H         2.89506383242147    2.59165155791017    8.97942307713328
C         3.16791687479108    1.11819770737357    7.43395443437726
H         4.23258841188261    1.05612133726714    7.58947524634557
C         2.54145727727574    0.35410554433503    6.47853387250544
H         3.09542651158932   -0.33134907261022    5.85585438209995
C         1.15087005811660    0.47249044611095    6.31800804261692
C         0.41250053998323   -0.27645806448457    5.35684286844351
H         0.95396776113886   -0.96435518742019    4.72609094325748
C        -0.92940351806097   -0.13314455068055    5.23775302548927
H        -1.48469295567305   -0.70345583106160    4.50930200627323
C        -1.65053068390180    0.76968725039471    6.07130384784236
C        -3.04147821032009    0.94734319219236    5.98626564748336
H        -3.60932576819608    0.38444426123183    5.26158400557756
C        -3.65127179419082    1.83897421017974    6.83618169304143
H        -4.71581736259441    2.00394667708170    6.80321937704541
C        -2.87996056506748    2.54044231361065    7.76432344728832
H        -3.35048775133247    3.24092095529043    8.44198924161980
C        -0.95165314804788    1.52474450652283    7.03719295340675
C         0.46888645212670    1.37629007970055    7.16027893881207
C        -0.48265933279135    1.84201462539034   10.51297172882911
C         1.17082192267436    4.14071332977301   10.44129741974817
C        -1.61969805911978    4.41498911950698   10.21767693241820
C         0.01149224286728    4.87566103155574    7.93897309768888
C         0.24774072701940    6.88282719794197    6.35945843124780
C        -1.14522526700731    7.49863449080306    6.20726816607683
H        -1.83018276658233    6.79507346253001    5.73901762673566
H        -1.08148232724349    8.38607615848222    5.58456332996673
H        -1.54537238921484    7.78290552401183    7.17766767915304
C         1.20673438359426    7.85431735748235    7.05144827575562
H         0.82223631909437    8.14140756591371    8.02720524755245
H         1.31617321657006    8.74759630013123    6.44353857004822
H         2.18645550061136    7.40114918455460    7.18334402619728
C         0.80200697213067    6.42383190715386    5.00928402367427
H         0.13021284851006    5.70878632891692    4.53873924142167
H         1.77847908133151    5.96019447461659    5.13180570003119
H         0.90763130491657    7.28157179671469    4.35176203088436

