31
CSD_code = TALXOU | q = 0 | S = 0 | Stoichiometry = C10H14Cl2N2O2Pd | MND = 4
Pd        5.63587545839506   -2.49075257585718    5.30385438913411
Cl        3.85848638907255   -3.87579543946847    4.93382811673626
O         3.85753094990186   -0.39304964838615    6.09936531831283
N         4.50944227213088   -0.96143462476768    5.06378233289124
C         3.18059380998398    0.67406614759750    5.63261217931812
C         3.40181656837590    0.78841165846889    4.28871293329803
C         4.26467791313824   -0.28715125125991    3.96967082129810
C         2.37908777900508    1.47378777992884    6.58693557755645
C         4.87451657781355   -0.70473605048761    2.68097761291914
H         3.01197402864494    1.52680867663624    3.62079529849107
H         1.87133284125327    2.27703781864120    6.06288833790646
H         1.64461266073909    0.83908405328543    7.07973517867911
H         3.02605637471718    1.89440858653714    7.35515083584915
H         4.10476345936356   -0.85683014316808    1.92673958982208
H         5.56357897771516    0.06097996555210    2.32720221829897
H         5.43073434421983   -1.64786663953642    2.83471760444665
Cl        7.41395126673179   -1.10563719881650    5.67028378319605
O         7.41456754991179   -4.58829930566136    4.50598875760677
N         6.76266565133134   -4.02009364699517    5.54172796418477
C         8.09158608426957   -5.65546345532028    4.97260313266018
C         7.87040249651596   -5.76995445680232    6.31649763518814
C         7.00751026155303   -4.69448796571525    6.63566144150334
C         8.89312867400795   -6.45512924028966    4.01825480567830
C         6.39756029306728   -4.27688881066070    7.92425053575945
H         8.26026890680483   -6.50838610651481    6.98435731071352
H         9.40109724499320   -7.25823500889100    4.54232699070717
H         9.62743680765673   -5.82034539321245    3.52531361842095
H         8.24616040257085   -6.87597980835403    3.25016800711117
H         7.16730671084003   -4.12477406653173    8.67860059174021
H         5.70830262289389   -5.04259405684309    8.27790984657982
H         5.84147462238117   -3.33369979310839    7.77008723399217

