38
CSD_code = TALZAI | q = 0 | S = 0 | Stoichiometry = C17H14Cl3N3W | MND = 6
W         5.47142250018766    4.14189942348754    1.65835755989720
Cl        5.91462643905685    5.06305675313637    3.80942590915889
Cl        6.36227671995263    5.96045634109919    0.66791686791810
Cl        4.39360273747512    3.54307749747527   -0.36819170273213
N         3.58186493876989    5.23490817224363    1.96365475687030
C         3.03624801840171    4.13065542483052    2.54124069312606
C         1.68446890325913    4.09893074777961    2.91609865416620
H         1.25656956244702    3.19757946232906    3.32339410567503
C         0.92904671628737    5.23435474358886    2.71601901438495
H        -0.11455694195937    5.24034617063555    2.99243123429234
C         1.50824818182244    6.36964334618920    2.15153774189009
H         0.93246636094490    7.26600601989010    1.99394562756692
C         2.83718588853539    6.31910261106734    1.77924030789026
H         3.33364564895222    7.16312329429769    1.31636964112276
N         3.97899196467315    3.15328005703381    2.58944777789750
C         3.81529883709458    1.89505308890351    3.17593814057064
C         4.37770652286148    0.81321368409323    2.49292736464315
H         4.85897962822718    1.00702016546133    1.53789572707475
C         4.31095983036956   -0.45591458258283    3.03217868631632
H         4.74638608562165   -1.28824677531631    2.50044033259641
C         3.68922804802952   -0.65942512418166    4.25557474482469
H         3.63887861561758   -1.65120257812588    4.67805291898264
C         3.14420456064112    0.41338536205708    4.94088463369993
H         2.67623997897752    0.25856884411276    5.90160769309961
C         3.20252827584628    1.69057686167389    4.41132008716518
H         2.81590807257657    2.53184094617986    4.96729079465818
N         6.84772317135544    3.02431173651566    1.62112252890904
C         7.87596770876583    2.17011079914893    1.65876862522667
C         7.94757900615013    1.18425457359763    2.66088089766926
H         7.15588398712670    1.14668643736588    3.39638560373030
C         9.00975252728277    0.30734719269388    2.69231621012690
H         9.05761544886570   -0.44449059529636    3.46635721702211
C        10.01463268425520    0.38315159091706    1.73869190075648
H        10.84226267985816   -0.30906181752413    1.76925482348464
C         9.95561967391298    1.35209844917222    0.74750833578595
H        10.73944303313587    1.41301677680514    0.00714827690463
C         8.90348402447771    2.24059896890351    0.70056077930191
H         8.83620996014226    3.00298593034406   -0.06339451166802

