71
CSD_code = TAMCER | q = 0 | S = 0 | Stoichiometry = C31H34N4OPt | MND = 4
C         2.06462671468665    0.29148909743975    6.47668439038244
C         1.31688991993840    0.30516462238909    5.25990388046796
C         1.97936064569859    0.19866820789385    4.02873298682191
H         1.40685248018251    0.30747342132167    3.12422122453941
C         3.33616590009747   -0.02485931589426    3.99300032939309
C         4.04015115037673   -0.12655708862391    5.20679938453867
H         5.09784553109039   -0.31832406189976    5.15767600427132
C         3.45628004622394    0.03568999166627    6.44307740036836
C         4.24034551170419   -0.02490327558105    7.74549303887609
C         4.16021318687366    1.34542330586504    8.43293902318221
H         4.68855252221630    1.32160518323583    9.38417878645861
H         3.12576475602072    1.62017259562814    8.61428633499787
H         4.61310439002643    2.10839377363888    7.80256433205516
C         5.71726313880650   -0.36950518253781    7.53526177596758
H         6.21428320766384   -0.42016585671653    8.50214944628943
H         6.21896496814875    0.39123641894315    6.94138218360814
H         5.82932339583833   -1.33591485053361    7.04863030248732
C         3.62452425697991   -1.10179478521223    8.64967974867114
H         4.15564137637260   -1.14583528187594    9.59861443619670
H         3.68996164371874   -2.07661926025581    8.16994277073882
H         2.57921392044349   -0.88502251121151    8.84745864745827
C         4.10947143825419   -0.15924692946118    2.68989190589133
C         5.16581257164426    0.95266360867196    2.61878478332518
H         5.71857841968836    0.88613668248545    1.68387862181097
H         5.87437387105368    0.88016860058836    3.43903543766369
H         4.68594564502701    1.92779833720242    2.66847170927928
C         4.79581017934316   -1.53203081185755    2.64603868228103
H         5.33219979921313   -1.65241860664305    1.70699526186887
H         4.05451163200237   -2.32443711533351    2.72469658884594
H         5.50634669328285   -1.64882367886717    3.45925491212396
C         3.21032693269344   -0.04015434789988    1.45606213276118
H         3.81345291978545   -0.14716659344421    0.55652159882732
H         2.72168601332935    0.93058563952841    1.41926631323365
H         2.45226892675493   -0.81978039739584    1.44752176554047
C        -0.85873242029718    0.70091824310078    4.34100185161891
C        -1.65306710470237    1.84648240766050    4.27763019224974
H        -1.56337683681715    2.58390302236530    5.06676655573109
C        -2.53484080956616    2.03062918685901    3.23174675817001
H        -3.14840507218616    2.91867394064337    3.19898354067476
C        -2.62977333495866    1.08469295422567    2.22477279131629
H        -3.31706173521813    1.23108772584975    1.40543192214115
C        -1.84335939902868   -0.05389677421084    2.27798147213408
H        -1.92069082196339   -0.80014906826452    1.50066328452348
C        -0.96522879147355   -0.25064446660580    3.32540304708791
H        -0.38319372264214   -1.15856489558822    3.38655747317451
C        -2.27896792524096    1.50404028567117    9.39128630782005
C        -2.73394744501182    2.00948224979194   10.62767534202974
H        -3.77787099943117    2.25801629171769   10.71963509230839
C        -1.84350040270513    2.16246658884346   11.65314976777620
H        -2.16459133101621    2.54578894001476   12.60958943811788
C        -0.49661161018094    1.81485177607275   11.45363136764314
H         0.22235927467406    1.92225577174340   12.24894636636601
C        -0.10304784652008    1.33579757372097   10.22974808547110
H         0.92433348564726    1.05934889967976   10.03346856389551
C        -3.36073910875709    0.32251452927252    6.31911879806797
C        -3.04285437308417   -0.84741236109465    5.62904270519866
H        -2.13370625619763   -1.37638491439596    5.88951847719041
C        -3.89353042874628   -1.32527034744541    4.65376798576830
H        -3.64439224388295   -2.23188124964788    4.12300646719766
C        -5.07012679701403   -0.65292266481616    4.36203657610567
H        -5.73094598467840   -1.02847934620524    3.59549652855653
C        -5.40125347093262    0.49485444539562    5.06384802985075
H        -6.32234986374615    1.01437611113331    4.84485392459738
C        -4.55966110838399    0.98013802489996    6.04441847361877
H        -4.80026564206980    1.87165453149554    6.60188020486839
N        -0.01590160544468    0.52577261986238    5.44195823856980
N        -2.48947422128211    0.78991182643753    7.30212825135769
N        -3.10106935241349    1.26727891934281    8.37585110179082
N        -0.95582011586908    1.17870503599180    9.21102506896666
O         1.40574503146606    0.57429053864407    7.56519546822246
Pt       -0.55629331518382    0.73806411283434    7.33398833847285

