36
CSD_code = TAMDIU | q = 0 | S = 0 | Stoichiometry = C13H18MnNO3 | MND = 7
Mn       -2.23165027667237   10.50046367418005   11.32840218283000
N        -2.39739334249984    9.35569779172294    9.49220571936306
C        -1.38039954093992   10.35161901834945    9.48638359297965
C        -0.33278131169425   10.23057433158901   10.40684650590411
C        -0.39558060352288    9.35612383112995   11.51588032186008
C         0.68485962444348    9.46266218540878   12.57131681090604
C         0.21369287227576    8.94063721817510   13.92477767627605
C        -1.99554125857083    7.98258128165394    9.14836006889008
C        -3.54893455709350    9.67108324115410    8.63690531699985
C        -3.08403380462535    7.01148086941336    9.59412944298034
C        -4.73313446336643    8.79749555202275    9.04018785542263
C        -4.38599379665599    7.32215437573475    8.86118995727056
C        -3.58733361931538   11.60497029505978   10.96495696659484
O        -4.44053746729668   12.36991380524339   10.82725324177065
C        -1.70397367027912   11.72684732437553   12.50775100596446
O        -1.35061126947779   12.52548396767143   13.25948646354331
C        -3.06167791193784    9.47502740279350   12.53547488272625
O        -3.59395297996796    8.79472373340149   13.29766296313085
H        -1.27647454575463   10.97192684459182    8.59397971706945
H         0.46723025721684   10.97068891197734   10.35796761797127
H        -0.68922834284569    8.31665663210246   11.38058646316833
H         1.00551867917934   10.50198397697777   12.68048583773721
H         1.55547272294724    8.87642082342574   12.24871512966623
H         1.00956025558578    9.01856043277499   14.66161009556433
H        -0.08746259105029    7.89746350740069   13.85178022975671
H        -0.64046362592201    9.52117612490148   14.27056353166270
H        -1.85963434296491    7.91231179699182    8.05769344905570
H        -1.03857111400303    7.72654216949777    9.60405396894120
H        -3.81431738708087   10.72569802986901    8.74227984582259
H        -3.29131982507770    9.48801035701270    7.58211146066893
H        -3.23625162004094    7.12213650296139   10.67129308981825
H        -2.76685899015617    5.98629320731684    9.39618355696320
H        -4.96782822747137    8.99945287383841   10.08984394095459
H        -5.60333939182476    9.06196742253771    8.43846162954501
H        -4.26721803307581    7.10016376748693    7.79715781389953
H        -5.19243650046426    6.69680671925562    9.24506164632203

