69
CSD_code = TAMFUL | q = 1 | S = 0 | Stoichiometry = C32H30CoN4O2(1+) | MND = 6
Co        2.08949227074643    8.03940182935632   12.75567018026553
C         3.95072144630969    5.89913833203562   12.74525685083999
O         3.43411971888338    6.86363226925871   12.05974955786820
C         4.46980488789498    4.76967738237952   12.07279166073695
H         4.39859142431581    4.75125686028990   10.99606798715129
O         0.74285189720636    9.08159409684254   13.63373199946664
C         5.02315346020382    3.72327453677171   12.76361539508501
H         5.39099277818588    2.86478161219093   12.22225724855978
C         5.11491166564466    3.74798461511461   14.15948893121931
H         5.54836857375681    2.91298628642002   14.68584064599109
C         4.66940074275908    4.84742570371602   14.84389363244414
H         4.75246621917378    4.89476475724232   15.91992419710865
C         4.08264828116475    5.93305213695216   14.16763218233370
C         3.77165025091936    7.13356345585110   14.85225416725591
H         4.22349635595231    7.27750161250214   15.83364337441485
N         3.09901948474479    8.11199891962083   14.33539070328448
C         3.09078456078509    9.36772470442220   14.97350419687316
C         2.72915430284792    9.49573001922932   16.31055176399507
H         2.44494931669266    8.61614760706167   16.86909445245992
C         2.70581705396547   10.74230921684839   16.90902477461882
H         2.41844480012355   10.83120846200173   17.94468401955277
C         3.04051799751568   11.86797375283323   16.17734857826216
H         3.01455715263943   12.84264152782685   16.63801736534304
C         3.41312884422053   11.74266590387960   14.84883392324162
H         3.68947771797650   12.62224003467601   14.28625045417029
C         3.44899602659302   10.50235968673814   14.23124314751988
C         3.93014383203900   10.35565522914976   12.80773348958610
H         4.17044113026234   11.34322522777411   12.39374678831270
H         4.84417282571394    9.75133836027977   12.80693480200229
N         2.94453602828841    9.67232137973013   11.96530247092914
C         1.81100518695099   10.54808014141683   11.63602354518519
H         2.14272760765478   11.35441246722599   10.97042368759633
H         1.42759787514907   10.98528142956342   12.55746582762217
C         0.73556252682339    9.66756028815010   10.97460147513128
H        -0.17777616114364    9.68563796555121   11.56881981962703
H         0.50069840304713   10.00503925194945    9.95772154068951
C         3.49596293015636    9.21418298179232   10.68357628457891
H         4.39837247237840    8.63120995633546   10.86635643840047
H         3.75387840355569   10.07395947730662   10.05320223501010
C         2.42034021942569    8.32747967953846   10.03045849579812
H         2.11179237447682    8.71591153897809    9.05211595267279
H         2.79263379717083    7.31103768047034    9.90600776377006
N         1.26939545027906    8.29974231030702   10.94412267094394
C         0.27674239656922    7.30169139105362   10.53591286629808
H         0.05582326890122    7.39533982157790    9.46499409582013
H        -0.64426261990466    7.50089054595663   11.09517771422482
C         0.73380505318718    5.89579765606542   10.84181281154172
C         0.77287788812770    4.92643558313117    9.85205506603888
H         0.51598029574235    5.19480906929267    8.83788811688930
C         1.12424141931007    3.61904920770117   10.14694644216958
H         1.15333064647773    2.88104072747451    9.36126079997646
C         1.43430686777564    3.26498500250394   11.44800395640408
H         1.70605828939971    2.24886957949830   11.68619308324208
C         1.40656341743098    4.21792080718973   12.45009252683592
H         1.67101197739561    3.95304421277166   13.46314436343590
C         1.06586142112601    5.53386816142481   12.15544587657432
N         1.05276495697320    6.52734825568135   13.15412974812467
C         0.35615691109407    6.34683106452668   14.23069696887688
H        -0.11248737652110    5.37525220252337   14.38715266990388
C         0.04142014194768    7.37252779029970   15.15580392410663
C        -0.57356084224604    7.07266428415547   16.38549403998722
H        -0.67766605704843    6.03582730071687   16.67025534849276
C        -1.02115308529058    8.06911861744797   17.21161783997850
H        -1.47715090934971    7.83234720508268   18.15932706628857
C        -0.90227767909242    9.40318342119344   16.80712066154211
H        -1.27116043842663   10.18819937788653   17.44982905600650
C        -0.32056168133204    9.72957638169735   15.60986936393893
H        -0.22760107815687   10.75833095499061   15.29718480299094
C         0.20013468245999    8.73404069057198   14.75251611239254

