47
CSD_code = TAMLUO | q = 0 | S = 0 | Stoichiometry = C18H16F10N2Pt | MND = 4
Pt       -1.32034712042862   -0.15167344680484    3.04686705607129
F        -2.50967231863924   -1.03098711857158    0.41342861316463
F        -4.24890209887182   -3.01818768258539   -0.29763136207600
F        -5.31878661012984   -4.63350130473143    1.63049867625746
F        -4.64800643101237   -4.24832369552010    4.24907144677606
F        -2.90691430494019   -2.26439921726873    4.92820474736226
N         0.11728127552292    1.44377060643756    3.15495446401159
C        -2.65153391990598   -1.60956914071332    2.68450446738082
C        -3.02088551072393   -1.84627801442912    1.36298302475409
C        -3.90739936310404   -2.84531439438272    0.98675693978434
C        -4.45600261893158   -3.66651922566192    1.96716453952061
C        -4.11233798300954   -3.46820594854871    3.30017309303797
C        -3.22085694676968   -2.45420639359022    3.63061880898253
C        -0.65084107997252    2.66854654749126    3.41505889054733
C         0.66550264660822    1.45122913097563    1.79287183054010
C         1.22082576796708    1.36879562864259    4.11318488440049
H        -0.07423736870078    3.55653126073330    3.11321786579041
H        -0.82451682414911    2.73789077681488    4.49224911302838
H         1.27299212399830    2.34867006716651    1.61944694452004
H         1.29239568188858    0.57178548074530    1.64972288245338
H        -0.13335646708804    1.41024761795219    1.05177958677670
H         1.83467183143099    0.49465669336448    3.90315800031164
H         1.85270957106655    2.26329683957906    4.05153040173090
H         0.83280589650049    1.27841375006937    5.12674535409008
N        -2.75794768545218    1.44376931025817    2.93844524167158
C         0.01089615725312   -1.60958248693524    3.40893028540433
C        -1.98979097835109    2.66852323958044    2.67833678281027
C        -3.30612848607197    1.45123561491990    4.30054291668063
C        -3.86151231206768    1.36878879950366    1.98023739340224
C         0.38023997017653   -1.84628975932161    4.73045069634715
C         0.58022670338068   -2.45421108691642    2.46281021914417
H        -2.56638346263173    3.55651513243226    2.98016765738699
H        -1.81612479670069    2.73786019723427    1.60114498098347
H        -3.91355222975726    2.34871150907246    4.47401028836921
H        -3.93306486825856    0.57182396482057    4.44368460225868
H        -2.50724954001688    1.41017263935130    5.04160860796544
H        -4.47539774983096    0.49468815084538    2.19031398996946
H        -4.49335207072778    2.26332345320320    2.04185282249225
H        -3.47350433356172    1.27834133555649    0.96667841904193
F        -0.13097258779491   -1.03099746782798    5.68000185992404
C         1.26674688235297   -2.84532785930211    5.10667818256336
F         0.26629719548792   -2.26439976195589    1.16522157435162
C         1.47170117676967   -3.46821554496614    2.79326242875951
F         1.60823808564512   -3.01820167475800    6.39106974756147
C         1.81535179701104   -3.66653529264758    4.12627431330431
F         2.00737197979129   -4.24833771732701    1.84436845851610
F         2.67812332472736   -4.63352351195134    4.46294826185530

