40
CSD_code = TAMLOI | q = 1 | S = 0 | Stoichiometry = C12H21N4NiO2(1+) | MND = 4
Ni        0.31742034286173   -0.40385268922817    2.27915015836128
O         2.08384364886782    1.71689040000863    1.22198554070416
O         2.01072684648832   -0.60196281507616    0.21165371986900
N         1.33280853894345    1.26637455524161    2.23575841022327
N        -0.14719706761085    0.25485662666912    4.04203697592616
N        -0.99648439695927   -1.87296697692455    2.11080973499628
N         1.02035076247879   -1.14118654104896    0.78044295781766
C         1.10694485666516    2.04833956856878    3.24110490776764
C         0.30500850453802    1.43067701246810    4.30857639071616
C        -0.85884190578608   -0.54215039141233    5.01535146553061
C        -2.37642481425061   -0.46410108401328    4.79628097810439
C        -2.78087874462536   -0.72426381900124    3.34601278996988
C        -2.26724530809337   -2.05316547730578    2.78259345687735
C        -0.59432136918615   -2.73319769530610    1.22440361640438
C         0.58708332906914   -2.34162553980883    0.48680199968008
C         1.65340799996578    3.42726847293316    3.33562013444793
C         0.12368577227243    2.16076644968094    5.59432328137344
C        -1.30486087992157   -4.00436263887778    0.92188411230524
C         1.23427532965202   -3.16551167961822   -0.57644331006144
H         2.22473368097212    0.91041124549577    0.61156447981106
H        -0.61670391916723   -0.24212996888236    6.03877247973833
H        -0.52794810886832   -1.57665149354008    4.87867549570770
H        -2.85302087780202   -1.19373197210127    5.45199120101564
H        -2.73488400826549    0.52603535470255    5.08185287943663
H        -3.86892649551567   -0.70833022338666    3.28792737857884
H        -2.40296704827737    0.08251520226660    2.70468525261618
H        -2.99591428869158   -2.43570287837431    2.05968275434178
H        -2.17120831457953   -2.79705881264908    3.58256201173005
H         0.84515459078975    4.15724883687765    3.35844124427270
H         2.28234876591340    3.63395565786758    2.47346696228601
H         2.24434577024919    3.54348616614248    4.24251899859218
H         0.16126632304869    3.23389780969650    5.43429772310991
H         0.93150370492368    1.89891916531888    6.28010461062729
H        -0.82067785718833    1.91272731672312    6.07031487321120
H        -0.69923491083681   -4.65634171733617    0.30235867157067
H        -2.23256374553669   -3.79093766353243    0.38833161078810
H        -1.56734142957638   -4.52634213659236    1.84053493024274
H         2.09382350179952   -2.62881442716692   -0.97140858030838
H         1.57210876767889   -4.11873933673803   -0.17318561779530
H         0.53850445356135   -3.35934186274130   -1.39133668058601

