130
CSD_code = TAMMIE | q = 0 | S = 0 | Stoichiometry = C46H76LaN5Si2 | MND = 5
La        2.63977776743632    8.35170284363348    4.44307404618466
Si        2.49863412504181    4.82615996103931    3.85155355844263
N         1.21986902064042    9.96128115474457    5.82118426635586
C         1.03959670419247    3.60126765139380    3.65571984318433
H         0.96961116903870    2.95210943017261    4.52122323833786
H         1.16255831738024    2.97003523192065    2.78102130505678
H         0.09204297473838    4.12080811395943    3.55736215843544
Si        1.74491303640054    5.51641977404724    6.63282540728115
N         0.48481253357127    8.80690097761381    3.47953713164329
C         4.07839206886457    3.75295326516950    4.00598606258110
H         4.97686175472812    4.35169105939913    3.89635516864068
H         4.10332247483764    2.98191375299148    3.24178957661119
H         4.12458639730681    3.25949611250963    4.96956548710098
N         2.83826632349601    9.85986475357801    2.58554624661908
C         2.65922464282695    5.71584924121658    2.15929593200381
H         3.11689574986773    6.70609669106863    2.25673297010360
H         1.69473681505424    5.81765397335150    1.66952140974013
H         3.28900524112238    5.12572673993936    1.50147898993704
N         5.05169334338808    8.52831884997396    3.74166996249647
C        -0.12953908779176    5.13968395537071    6.78128699604004
H        -0.73374774109204    6.02755076354766    6.64370835383443
H        -0.36512721997746    4.73119216870812    7.75952787148493
H        -0.43593227417192    4.40962391755553    6.04105932319641
C         2.12520618871426    6.94980840222730    7.84321083352718
H         3.19276769802934    7.11106179668187    7.95521740034279
H         1.72522789139906    6.73730861947606    8.82961941066916
H         1.66838855059421    7.87295772318854    7.49706438443667
C         2.55221123460738    3.93465286414824    7.34968674887917
H         3.63212579368895    4.00247675677860    7.40678396563635
H         2.30948939841078    3.07907731119205    6.72866594164169
H         2.18383307532611    3.72698111323567    8.34974603731415
N         2.30786237113456    6.01266512536539    5.08151261370901
C        -0.54013136746103    9.87418177117245    7.54836916432908
H        -1.60444252588576   10.07364892065811    7.44985828230353
H        -0.04032906650328   10.76250752815640    7.92839593297151
H        -0.42019241039803    9.06761146275416    8.27221334886070
C         0.05942570335370    9.44332164929916    6.22501936820124
C        -0.61751970196864    8.45036904921480    5.51909133807883
H        -1.45254126930409    7.97845318894923    6.01565323515199
C        -0.42748548563461    8.14774344711206    4.15247628437305
C        -1.36456016856545    7.12019767277849    3.55756997234150
H        -2.32570851182455    7.56804983249458    3.30604142074682
H        -1.54088668069623    6.33540448729495    4.28908206325500
H        -0.93375214032252    6.67015481124896    2.66644317574436
C         3.50421479611734   10.95125898190928    2.91398806187590
C         3.01595175979604   12.34437738091441    2.57903782605789
H         3.75475183916423   13.08516940166949    2.86949930796092
H         2.10211127463902   12.55169539788447    3.13317474776764
H         2.81563150695388   12.45687230146591    1.51593420985333
C         4.76995936302651   10.89388674324354    3.52605158834228
H         5.25576021367227   11.84347518319823    3.69990162462777
C         5.55110364660182    9.75707706264762    3.73631031412493
C         7.03431860924725    9.97543181859028    3.95683793855003
H         7.61580866007960    9.18060138510650    3.49533709283616
H         7.24733188905763    9.96577871099941    5.02555918177798
H         7.35407381723662   10.93441393400860    3.55740207472296
C         0.62510985731690    8.85414514085391    2.03902864902979
H         1.01481033264583    7.89784762646218    1.64691802958748
C        -0.64473033043947    9.20982763008692    1.24707796372209
H        -1.43505055644491    8.48529172216625    1.43076756529973
H        -1.00795198289365   10.18620235977003    1.57435878129726
C        -0.33639926889915    9.23344886852923   -0.24970937049958
H        -0.03264926568919    8.23240061771572   -0.56583100313411
H        -1.23977179901627    9.49684445333627   -0.80428628284306
C         0.77775174551763   10.22183334222808   -0.58081088530881
H         0.43282344598058   11.23811202480708   -0.37464273075674
H         1.02089338850138   10.16201462261313   -1.64383987937527
C         2.01904128749704    9.93153791084307    0.25676596350237
H         2.41330741595103    8.94152518404894    0.01819458155571
H         2.80306931386233   10.66010179518318    0.04150413998457
C         1.65600285787199    9.97707454553269    1.74726958701262
H         1.13786125802298   10.92358401781704    1.94948524856233
C         1.58332027387419   11.28017655030773    6.08995432711124
C         0.74710203784249   12.35271956007975    5.69578909383214
C        -0.64724986795048   12.14863727639869    5.14060043763700
H        -0.86155627557554   11.07913157068146    5.10154704001188
C        -0.77819698623291   12.68404985378466    3.71296866711685
H        -1.80453019846200   12.56961411923371    3.36852799868090
H        -0.13042941302038   12.12377617667729    3.04472124952846
H        -0.51380599684628   13.73756039151031    3.65424195149657
C        -1.68949279684355   12.82438181346060    6.03881549023353
H        -2.69310189596957   12.54449136484295    5.72460029921179
H        -1.60594479256368   13.90711155826368    5.97979112118411
H        -1.55832462534377   12.53287715272305    7.07725832413916
C         1.21076978217314   13.65327483489910    5.82089063178876
H         0.57661423102473   14.47196115910281    5.51385985818813
C         2.46164454572045   13.93238645329394    6.33329418354782
H         2.80153895918488   14.95353886216855    6.42028794906192
C         3.26436014698542   12.89041721700146    6.75617649799265
H         4.22548755238420   13.11765434232386    7.18857839911569
C         2.84791106282071   11.57370133106082    6.64811101827038
C         3.70158905929249   10.46441263989653    7.22677551711496
H         3.53255953343865    9.53806990266515    6.63112070719341
C         3.25798797778025   10.20033007330360    8.67071270270157
H         3.84659731193540    9.39953367377622    9.11313856075906
H         2.20971155418114    9.91906129995368    8.70847895178096
H         3.39322061909807   11.10117122920562    9.26707390896411
C         5.20047657421302   10.76500635548046    7.19937417653530
H         5.49823662572705   11.12128311655863    6.21724623822227
H         5.76244655630160    9.86289516738221    7.43340265047286
H         5.46250998331512   11.51493859111009    7.94247695703508
C         5.92598788289809    7.44835920274059    3.45891574896113
C         6.54164822783200    6.70972590932461    4.47713117972574
C         6.32964503564697    7.06393063295518    5.93088606323698
H         5.70164905154372    7.96463233956751    5.97758244106604
C         7.65891350451305    7.36131409194140    6.63177832679179
H         8.22643807363304    8.11582071369097    6.09172243618641
H         8.26870609050506    6.46391586867766    6.69825622964904
H         7.47916187529273    7.72091998441345    7.64362107855883
C         5.59076965175672    5.93203436560082    6.64464182542279
H         4.62783935101847    5.76158946276385    6.16789964780013
H         5.43037148587042    6.18325517828200    7.69176937177502
H         6.16809108763783    5.01127985287779    6.60240171609884
C         7.36274221391466    5.64290214699966    4.13869138847513
H         7.83607455124763    5.06345017065627    4.91706617847773
C         7.59792438949166    5.32017052455875    2.81702888773963
H         8.24639639118952    4.49341901847244    2.56712254398971
C         7.00664977646078    6.06553442054669    1.81349682309623
H         7.21142597365942    5.81421970555157    0.78450455193698
C         6.16722774414401    7.12857800343974    2.10794042174537
C         5.55085310404270    7.95285080382327    0.99656359697386
H         4.65801211970827    8.45010076471151    1.39723153867015
C         6.52714718135655    9.03963516029493    0.53123312891181
H         6.70359496569037    9.76561071243264    1.31789789082140
H         6.11454024104969    9.56444033296691   -0.32817108784223
H         7.47905688076555    8.59750467474010    0.24167965267738
C         5.13665870927020    7.10817781292991   -0.21045968637795
H         4.57648495424207    6.23114167078518    0.09960336220656
H         6.00421581789753    6.78204643280527   -0.77989557311158
H         4.51074434020719    7.70151232427378   -0.87458514655387

