141
CSD_code = TAMNIE | q = 0 | S = 0 | Stoichiometry = C64H70O4OsP2 | MND = 6
Os        2.67754047990950    2.75776682051321    2.69773414154509
P         2.94168081814531    0.56461498819867    3.44092261682576
P         0.68602922614457    3.28489087777371    3.77943019847369
O         1.64740830615317    2.52159867807517    1.00970385567214
O         4.21809376146437    2.54921553320186    1.37737344676132
O         3.94628318352429    3.26373479910470    4.12711083432112
O         2.86319740740987    4.73256816896291    2.26923346852323
C         2.38167639133258    2.98336622295656    0.02603614785483
C         3.80289832404865    2.95374833733648    0.21368261724959
C         4.64444038821222    3.24227980041481   -0.88746433861455
C         4.04246776268748    3.66174772843008   -2.05470221986032
C         2.65307756085911    3.75798939804388   -2.23398981396901
C         1.83000293163146    3.37305969136725   -1.19876599306703
C         6.15060383705354    3.06777205162325   -0.75319893596962
C         6.68472302703221    3.90003556593038    0.41919190380116
C         6.42552175046470    1.57699445855235   -0.50161012379533
C         6.91427697073879    3.48692155434375   -2.01336815544368
C         2.12031973726381    4.26605891598447   -3.56496553390684
C         0.59141334992833    4.34281120362541   -3.59165706607191
C         2.57156983772760    3.32001049925873   -4.68676518251507
C         2.66964812045798    5.67644764931600   -3.82163094198016
C         4.65428112329092    4.26613507716389    3.67580922829783
C         4.03533926194963    5.10310536680783    2.68433187241198
C         4.67987828035998    6.31023614131923    2.31667590145380
C         5.93403679346072    6.54760066646509    2.83725411208301
C         6.58108258277820    5.70263610312855    3.75478616702139
C         5.91098325058364    4.58590421558325    4.20170358620989
C         3.97656328033708    7.28371523139027    1.38190184387534
C         4.83148126889008    8.50904962007308    1.04474837711174
C         3.60032151374176    6.58790249158973    0.06843835402966
C         2.69899299607897    7.76249704378111    2.08661057148272
C         7.98330074505819    6.06290219648901    4.22088799098136
C         7.94914531031070    7.42438064893758    4.92959756984295
C         8.91561814568091    6.13436576314456    3.00333477426530
C         8.55660528705868    5.03121194382795    5.19620510408167
C         4.61427197138460    0.24659854047251    4.12299004061091
C         4.83598027461348   -0.58104115543557    5.22060288407290
C         6.12347435572816   -0.80358955246477    5.67585286769872
C         7.20274725201703   -0.20572736261862    5.04681926155406
C         6.98944707721779    0.61507921085854    3.95245105121329
C         5.70452650780457    0.83560678624770    3.49124200548723
C         1.91204490999763    0.09836691689789    4.86981061033490
C         2.15570144325730    0.79323027611430    6.05297387213642
C         1.42552906082495    0.50954642560276    7.19016009951512
C         0.42037881227914   -0.44449675358626    7.14595910967652
C         0.15552237213801   -1.11677748630972    5.96510529029023
C         0.90225311668731   -0.85421605099014    4.82926207961449
C         2.79757780102908   -0.86960100652608    2.31359110290748
C         2.40547548870933   -0.65913163286820    0.99653244297060
C         2.31290488363351   -1.72485078543035    0.11784954778890
C         2.61000003826976   -3.00624055659887    0.54964939762077
C         3.00414209026230   -3.22107287746085    1.86154194391109
C         3.10291553146045   -2.15917747581396    2.74074682117697
C         0.04451594817982    4.89403624786497    3.19333818823449
C        -0.21934646997258    4.98064206597293    1.82753265775446
C        -0.69612232884591    6.15658124925250    1.28318697052340
C        -0.92126284083027    7.25614772533065    2.09745785972834
C        -0.66066987730605    7.17467371617902    3.45411533813424
C        -0.17501236261504    5.99978396015609    4.00498031615723
C        -0.76306256526276    2.25685798090193    3.36227953004528
C        -0.58963300118492    1.03789401999362    2.72231033650461
C        -1.68463428404816    0.25995643660207    2.39012294976758
C        -2.96281226874940    0.69752952423899    2.69351951043943
C        -3.14465666693641    1.92365623307443    3.31415350229703
C        -2.05221761358665    2.70463355124777    3.64259673205531
C         0.58353890982726    3.48196417238702    5.58986802562278
C         1.59600586773380    4.24095040713928    6.17540240530149
C         1.59921069240825    4.47134329128348    7.53774235408033
C         0.59182324508530    3.94175302741267    8.32947026921285
C        -0.40397682266579    3.16970861890380    7.75543487711008
C        -0.40815748312565    2.93242202854646    6.39150220562461
H         4.67113826787965    3.93287516859550   -2.88547785980490
H         0.75487557740477    3.38296387381735   -1.27367044364136
H         6.19845045058922    3.62443038589888    1.34918734993429
H         6.50778573924093    4.96002464481511    0.24846340176393
H         7.75645663100185    3.74292996259039    0.53111027853542
H         7.49079900685671    1.40618371342374   -0.35645943664555
H         6.09054446267461    0.98435780875772   -1.35147043789105
H         5.89665697507508    1.23334944747298    0.38229126929747
H         6.62058438413886    2.88681954253470   -2.87187333261749
H         7.98044615929029    3.33885452758126   -1.85090432719948
H         6.75236107668650    4.53887292716068   -2.23904882384425
H         0.14794078534699    3.35954163320479   -3.45447762642426
H         0.26242282545646    4.72957300575143   -4.55458320086657
H         0.22397847188808    5.00988838536165   -2.81561968465148
H         2.18145434758890    3.65924692069923   -5.64452499840152
H         2.20236426108968    2.31388231780374   -4.49917605096685
H         3.65485672325734    3.27701959229990   -4.75661071719971
H         3.75411080883080    5.67590784501887   -3.88236011987401
H         2.37558925409237    6.34278186374955   -3.01389426528404
H         2.27639745595651    6.06900343627675   -4.75761354748923
H         6.45785049206606    7.43436485917008    2.52366755231268
H         6.32351312738777    3.90134226144071    4.92467765076009
H         5.08201200867786    9.07431073023077    1.93988111006960
H         4.27005723200713    9.16433335316087    0.38121195713125
H         5.74799645719508    8.22064496486756    0.53421231034256
H         2.93663692004854    5.74944955204159    0.25396479105985
H         4.48779094960616    6.21613385683975   -0.43949866337138
H         3.09147374307628    7.28836877065827   -0.59175919462168
H         2.05381462409361    6.91763332228811    2.30649252281949
H         2.15135271835398    8.45653095125322    1.45164750661109
H         2.94566442567762    8.26501288819690    3.02065346052864
H         7.61167123219843    8.21095681962975    4.26050689485194
H         8.94244894879168    7.68599195265574    5.28941962523322
H         7.27156644318680    7.38674665801743    5.78002181275061
H         8.59487506494707    6.89875482236280    2.30142675678869
H         8.92326410445222    5.17882072913707    2.48405982109042
H         9.93085648710754    6.36663398555296    3.31973598850318
H         7.95289436323857    4.96917806539905    6.09835218846384
H         9.56517342674125    5.32267301832668    5.48414200435089
H         8.60618092134943    4.04742190145428    4.73591380154425
H         4.00522150169920   -1.04168609320334    5.73638715797671
H         6.28348382712151   -1.44472982785918    6.53103553442750
H         8.20492404528236   -0.37720611195907    5.41211395066477
H         7.82528851131534    1.08816068877238    3.45760306556794
H         5.53900588920168    1.48416694500441    2.64652642315082
H         2.93256785427590    1.54637073066841    6.06300445141844
H         1.63473446162294    1.03379836014170    8.11073855238320
H        -0.15557053549379   -0.66354968524468    8.03296975448576
H        -0.63096967661868   -1.85658397561053    5.92921338955999
H         0.70573965102283   -1.39784594574849    3.91653451739549
H         2.17032507029805    0.34335543034238    0.66535993687471
H         2.00975433009970   -1.55371436582227   -0.90459669244969
H         2.53807333546851   -3.83893543821629   -0.13458978159624
H         3.23856381224081   -4.22059351639444    2.19806803659788
H         3.41724485991554   -2.32718073479784    3.76061614237962
H        -0.03130007938636    4.11693309982506    1.20571873759016
H        -0.89012650509955    6.22121699364408    0.22241683476447
H        -1.29399329481560    8.17718090469590    1.67370938157042
H        -0.83073612508588    8.03154368369083    4.08994142559679
H         0.03149873964967    5.94916546261900    5.06487635089294
H         0.41265595342765    0.72089894477216    2.46581460188965
H        -1.54113199839264   -0.68577191827981    1.88790509248642
H        -3.81921260310923    0.09155035641941    2.43640350231550
H        -4.14218585378889    2.27378544035873    3.53698912665364
H        -2.19556411479626    3.66970759929690    4.10976614292312
H         2.38385975018006    4.63911059204159    5.54815743834514
H         2.38496165843639    5.06291037473421    7.98452055827452
H         0.58842512247516    4.12454090159363    9.39418944724650
H        -1.18191800810386    2.74532341040257    8.37342334121175
H        -1.17815301079428    2.31345205942684    5.95592541923310

