95
CSD_code = TAMNOL | q = 0 | S = 0 | Stoichiometry = C42H42HgN2O6P2 | MND = 6
Hg        2.59801327285111    7.17972895625178    5.53904754072209
P         4.45044532015274    7.19122759500042    7.28834119912792
P         1.20481069990465    8.99585261551903    4.34267944782587
N         1.13669427453059    5.42994605608458    6.41244217285501
O         2.31980697167144    5.15452717151960    6.19360719412583
O         0.81314278194498    6.63359284240914    6.38690432439372
O         0.32741384152188    4.58772360536226    6.64971974840973
O         3.88181644887837    7.62977454496329    2.23476716301719
N         3.57921308430378    7.39138845498717    3.36475245654138
O         2.70447941945529    6.56406745394953    3.62654052170119
O         4.11461230517596    7.99411050127366    4.29959795966001
C        -0.33022422110620    8.17226096636028    3.70784956337850
H        -0.90239732844959    7.91659868807223    4.60555312106831
H        -0.88019376735930    8.91451979218032    3.11587589649356
C        -0.04722572845983    6.93315148525383    2.91171555679847
C         0.41059193696537    7.01128895895894    1.60165988013071
H         0.51872782299800    7.97565737941888    1.12475269253585
C         0.72968937710717    5.86377736598416    0.89953333002910
H         1.09837058176831    5.94201137508443   -0.11281737061287
C         0.59069036953699    4.62286195179007    1.49601053812387
H         0.85624146557956    3.72782025270233    0.95256526844413
C         0.10241821638230    4.53265627106952    2.78771283831246
H        -0.02476904156780    3.56866543584236    3.25793761020835
C        -0.22170030230099    5.68043542535884    3.48817489049435
H        -0.62882745332778    5.60172796671471    4.48616855031388
C         1.70891594611033   10.00152025704096    2.85982792815465
H         2.17034338049407    9.31719167335400    2.14299629478369
H         0.77818302487084   10.39396323387516    2.43353294841161
C         2.64693428669054   11.12616466788330    3.17583356806010
C         2.15096560408842   12.39010565706487    3.48048641920329
H         1.08303018407917   12.56086431819747    3.48402156811895
C         3.01052925597980   13.43874842099561    3.75688466017497
H         2.60877940082096   14.41491677845468    3.98817926444240
C         4.38028326121006   13.23827446777065    3.73308905521279
H         5.05150700842644   14.05539163147547    3.95180403658751
C         4.88292499200651   11.98807705825334    3.41583809355557
H         5.95022575650900   11.82762787258672    3.38201274505906
C         4.02421593045322   10.94004820745417    3.13344196395114
H         4.42425197384144    9.97320026427952    2.86912882559042
C         0.41248299613197   10.29918890851252    5.39679893138465
H         1.16677658593272   11.07484188985277    5.55617709171918
H        -0.43986125449830   10.72268218289855    4.85630926751100
C        -0.00474519713807    9.70937717122882    6.70840779481153
C         0.94039252885206    9.52123639820322    7.71171097862885
H         1.96985409394157    9.80988928157678    7.53512218019959
C         0.56544211911685    9.00861936908859    8.94021667431826
H         1.30010522558940    8.90802504334519    9.72728435513853
C        -0.74928170988064    8.63845049262456    9.16962742744125
H        -1.03704588616113    8.22413831064365   10.12459962346951
C        -1.69016182051686    8.80129813037694    8.16902812054641
H        -2.71635377223592    8.51050791218170    8.33902055126864
C        -1.32236605582087    9.34391861721094    6.95032178517599
H        -2.07072837084727    9.49198414752395    6.18365553558153
C         5.64788130619146    8.59506198067563    7.22149196543525
H         6.49779158325525    8.35115052603413    7.86757600883035
H         5.97237182602662    8.65223772320202    6.17883321025187
C         4.99717468496695    9.87828448880017    7.63281574851669
C         5.10404632248793   10.35582888989137    8.93373161137298
H         5.67335540433045    9.79824187779130    9.66471184190466
C         4.50042617702331   11.54719540924567    9.29689394479436
H         4.59069366778642   11.90746481586048   10.31112585943133
C         3.79059628776335   12.27950954123518    8.36088425112558
H         3.32747757524338   13.21351384992316    8.64159110998635
C         3.67878954154830   11.81043577955250    7.06253148780963
H         3.13652631765431   12.38318736368099    6.32474709610119
C         4.26903841531692   10.61137013516880    6.70233418557830
H         4.17984092043397   10.23814865677121    5.69072853063289
C         5.54370334921065    5.75755129423972    6.89003106876791
H         6.43361324733963    5.82812891647597    7.52686950784110
H         4.97183297958259    4.85922599856957    7.14419431127981
C         5.90027459630959    5.76301486428240    5.43268490381721
C         7.02107703336053    6.44410253772541    4.97243137398569
H         7.68167717429929    6.93061310121768    5.67742264333879
C         7.30447639960217    6.49745007934534    3.61893319898961
H         8.17485870146150    7.03671853355992    3.27444609947173
C         6.47181866289704    5.87044075507988    2.70872349428330
H         6.68041951929373    5.92872098249324    1.65150435246485
C         5.36593110655133    5.16965349879783    3.15990723021997
H         4.71639001427942    4.66993917456276    2.45656379163729
C         5.08421376846776    5.10916986127774    4.51429946478745
H         4.23137866911439    4.54136763005218    4.86386187605354
C         4.21487905561290    6.96524158071687    9.10702458585887
H         5.20525133853849    6.90258170183281    9.57046965178698
H         3.69951478036087    7.85785075650715    9.47434602070970
C         3.40961897524489    5.72883589804052    9.37254656089881
C         2.02898244771724    5.74743593313559    9.21315599029964
H         1.54103889803279    6.66589709854580    8.91527704391923
C         1.27961746980062    4.60718327425433    9.44079708967155
H         0.20897832285486    4.63373955610925    9.30854755624789
C         1.90486483517250    3.43106212384846    9.81890072385727
H         1.32088359614486    2.53889790129311    9.98560291415884
C         3.27930081464945    3.40270548111828    9.97714466655528
H         3.77280178380605    2.48797658880406   10.27146236348793
C         4.02784164234749    4.54549231826861    9.75593132744812
H         5.10111095186831    4.51894604592427    9.88787355380918

