79
CSD_code = TAMQII | q = 0 | S = 0 | Stoichiometry = C35H40MnO2P | MND = 10
C        11.23363451879808    7.67496870601050    0.92067645603549
C         8.95878563246502    8.05364277637968    1.23329668801660
C         8.44953177752756    8.10926785384998    2.56689095815558
C         9.16410330236024    7.39645012718119    3.56894189699447
C        10.04392611421085    6.33639595638539    3.27487911558407
C        11.78964646394669   10.28275835921792    1.84797550105154
C        10.51014982166121   10.69463666214098    2.29068566979085
H         9.84945757155826   11.36343270676350    1.75693766767058
C        10.33260105972448   10.25008264485264    3.62246846139332
H         9.50303868294233   10.51771075928645    4.26300651545746
C        11.48785896618614    9.55423192174907    4.01800687121039
H        11.69381259412979    9.17122880929766    5.00762608855662
C        12.38518404055739    9.53783517767991    2.92448465251626
H        13.42296526569457    9.23209060401059    2.96107077840113
C        12.49369945695127   10.74489761513894    0.60827474962593
H        11.78812060361507   10.90395907245966   -0.20440040409210
H        13.23843425611597   10.01914510289079    0.28813698323421
H        13.00044316508759   11.69032509872841    0.81407274472153
C         7.33722921334545    9.01021711216608    2.87427822113606
C         6.95619681483999   10.02581227470404    1.99262939702089
H         7.50440702698933   10.16540205596670    1.07225822883317
C         5.89010987125578   10.85106137214794    2.28890831017173
H         5.61313259269157   11.63405538425873    1.59816111732099
C         5.17666344400669   10.68032120207065    3.46482334279322
H         4.34511460274094   11.32905253778260    3.69588090524010
C         5.53179448456163    9.66498148228167    4.33679975544905
H         4.97279824643263    9.51488559038286    5.24919328784737
C         6.59775147906781    8.83495812512331    4.04754991255112
H         6.84627435365072    8.03353141088179    4.72848706914390
C         9.73297836799907    5.42221173730185    2.14529447982734
C         8.39026881377695    5.14204276306491    1.85978140816771
H         7.60817753320463    5.62092227841548    2.43265502962365
C         8.04329120520984    4.25509266391214    0.86005222839664
H         6.99974276609555    4.06120466673925    0.66015446406627
C         9.02417198361175    3.61692174487632    0.12039703258283
H         8.75207375694052    2.92344900807158   -0.66079194142215
C        10.35558842719185    3.88481400903464    0.38647366784820
H        11.12951508056218    3.40468926758737   -0.19363913485485
C        10.70793224175861    4.77435996947836    1.38382486062158
H        11.74939278636560    4.99903198684320    1.54292734445029
C        13.36779188877143    6.04482440673213    3.64134898103005
H        12.85047198520995    6.57829504493057    2.83378681480646
H        13.59051058853340    6.77250101619612    4.42680192625890
C        14.67110622020343    5.43961338426293    3.13140098036860
H        14.45422497063718    4.72979964380391    2.32950958094503
H        15.30860294503994    6.22370902137896    2.71757196283345
C        15.39634588749050    4.72006434922215    4.26490371681221
H        16.31511312482882    4.26300842423688    3.89156490623421
H        15.67198409996377    5.44472912470681    5.03469900765558
C        14.49644301425641    3.65147815098782    4.87785678146051
H        15.01152963841544    3.16162871379085    5.70717888995597
H        14.27584232370735    2.89002638730622    4.12541444215383
C        13.18696257894997    4.26194426453564    5.37243392446245
H        13.39696802279829    4.99044346397986    6.16044998935653
H        12.56086763348998    3.47742703529157    5.80260346238982
C         8.42828681056673    4.74674120277679    5.60608292426197
H         8.45264305390975    5.60544569159484    6.28400918792192
H         7.96515606326528    5.06579356585431    4.67024603091721
C         7.59300156092932    3.62703575882361    6.21903005795641
H         8.01472579863090    3.34544712124834    7.18712478378533
H         6.57202391458747    3.97676180583371    6.38794947958071
C         7.58512671014899    2.41258303323674    5.29692581284403
H         7.12021321110983    2.68170592583874    4.34553451106030
H         6.99721728021218    1.60808390915761    5.74374492584200
C         9.01143043086305    1.93767202043861    5.04253948788673
H         9.00336095791408    1.07200160879968    4.37675639567377
H         9.46403906244971    1.62848690346799    5.98847519056643
C         9.84773176214720    3.05238118317546    4.41474279690168
H         9.42202733669128    3.31313110567879    3.44605683247273
H        10.86207529330916    2.68548157567867    4.25201063246271
O        11.65312182454371    7.21332927619967   -0.05146973915965
O         8.53911003588361    7.99395670582651    0.11951206354534
P        10.89570922165629    5.76911560188183    4.84197356748734
Mn       10.54912568681990    8.50883619852138    2.32007899877403
C        12.46222585248516    4.95884282369221    4.22057719968502
H        12.22177064859522    4.22187970168778    3.44858077884558
C         9.85567029564275    4.27289560218744    5.33022262767004
H        10.29868138415402    3.97926886408149    6.29418140204207
H         9.03556249543960    7.69245178586688    4.61055830309469

