91
CSD_code = TAMQIH | q = 0 | S = 0 | Stoichiometry = C24H56CdN2P4S4 | MND = 4
Cd        3.50776988870934    4.56682888471465    4.02369094391312
S         4.46372127136215    6.66483141944573    5.13294939484728
P         2.78777132484207    7.74878347320845    5.30683358260552
N         1.73274084155841    7.85494096453905    4.09099235561257
C         3.33092513513238    9.50099300474841    5.58943194990762
C         4.15638016982438    9.95398079446986    4.39251490280122
C         4.13765664959097    9.61481989743176    6.87528195919642
C         1.87405322899707    7.24595298677133    6.85743444007956
C         0.78064687775826    8.26191861990465    7.16325988375374
C         1.30181171058954    5.84761435938109    6.67105564630615
P         1.22088571503955    6.95328073782602    2.85503352513590
C         2.11473441140834    7.49067624444615    1.30449358074241
C         3.60090606246468    7.19719863039768    1.45536916334187
C         1.85991580577451    8.97090754416756    1.04925865183395
C        -0.54707587212439    7.46757529804810    2.62034521741060
C        -1.10714939121953    6.89729295672482    1.32484767137421
C        -1.35725449569933    6.98605363672685    3.81655909467327
S         1.21093010708618    4.95288576771493    2.96540196339631
S         3.18377942771305    2.75068519923759    5.79435504768413
P         3.90379129773560    1.17352159652816    4.78891758982958
N         5.28099327680875    1.27808196208703    3.95482684704393
C         2.57804642233619    0.46635381963087    3.67694561140763
C         2.31480268321743    1.43111119519773    2.52930442515398
C         3.01345733083590   -0.90142459728270    3.16563415548578
C         4.24110878281478   -0.13700266918178    6.05921440344963
C         5.26459401716447    0.39748062421481    7.05206949113359
C         2.95740352950413   -0.53971516341821    6.77144635741941
P         6.11026345990058    2.39803649975313    3.14160614721212
C         7.44903582031689    3.08120155790518    4.25294388263383
C         6.80796866785539    3.79353335949638    5.43565845845236
C         8.36114016585371    1.95020807688842    4.71203711207948
C         6.99712659839940    1.43829981335799    1.82354855138211
C         8.02663578227834    2.31269140575336    1.12145786468985
C         5.97081331895223    0.90944930406303    0.83059208505035
S         5.17104455121723    3.89783401365725    2.20065955992296
H         2.41562630949952   10.10023347640436    5.64493548616136
H         4.45230149333107   10.99554840294698    4.50678564417261
H         5.05500884136498    9.34411060326387    4.30742544724966
H         3.58112646095091    9.85709380473700    3.47436381928669
H         4.55057879895936   10.61830512051346    6.96799552798999
H         3.52969786579300    9.41527352209140    7.75499174687641
H         4.96313570201373    8.90453169949638    6.85443681030668
H         2.61622612518433    7.22516177767625    7.66366423171955
H         0.12061507904970    7.87792488421934    7.93968032554541
H         1.19568954208932    9.20672149318765    7.50684643755039
H         0.18874774161880    8.45319612561443    6.26993544734859
H         0.67733751919972    5.57593386803493    7.52050923299721
H         0.68839666830588    5.80186977946324    5.76879399282425
H         2.09940178536680    5.10478900977262    6.59218124889711
H         1.71063323802880    6.88415157518972    0.48587798943438
H         4.15544535925212    7.59758710340907    0.60830006236719
H         3.99147020055288    7.65635215763605    2.36592675011005
H         3.78599335169411    6.12102400425226    1.49676727445433
H         2.52688931215399    9.33555733219784    0.26942451203853
H         0.83543381886929    9.15289154340613    0.73261037276449
H         2.04403755106402    9.54305448967972    1.95684313748994
H        -0.54744354551860    8.56281722988541    2.60070965913357
H        -2.17450905338305    7.10320266666185    1.25834869486930
H        -0.62350409033067    7.32608011680426    0.44990862317581
H        -0.96414874441040    5.81765561319322    1.30738608276625
H        -2.39242805110030    7.31257727810343    3.73116327390605
H        -1.33840807767124    5.89795104610922    3.86555981551322
H        -0.94484274251340    7.38380875112877    4.74122933203742
H         1.67198333550011    0.37892015002938    4.28729496872351
H         1.62472614689879    0.98904009553106    1.81249834847822
H         1.86857349352106    2.35973879913036    2.89267605076766
H         3.24415138524580    1.66714502064181    2.00679487026557
H         2.34934886210217   -1.23000804926331    2.36753827497288
H         4.02661919627990   -0.84666007116104    2.77121471840509
H         2.99327608780032   -1.65043419697485    3.95392137429781
H         4.67290172452561   -0.98523502105921    5.51708292143688
H         5.51845795477781   -0.36674398757540    7.78488648388436
H         6.17432001220691    0.69776191741418    6.53675086613633
H         4.85872206886955    1.26161983088718    7.57665744054498
H         3.18409480733451   -1.21966642541138    7.59142175057525
H         2.47325498947601    0.34496777950881    7.18285641903677
H         2.25995546371088   -1.03703757843026    6.10097458095678
H         8.00935041467745    3.80972684596269    3.65593815303230
H         7.56905303221451    4.10405816150687    6.14964849861212
H         6.27114181630335    4.68774607301829    5.11046418643594
H         6.10929903581011    3.12986125140898    5.94932017954868
H         9.01457882834555    2.29877258158976    5.51046190113483
H         7.76549085209452    1.12129568715756    5.09042576302754
H         8.98400119922124    1.58132056369614    3.90038034363766
H         7.47768383794445    0.59426352120224    2.33002625177475
H         8.45491234043701    1.77726659177164    0.27531019353755
H         7.54684543188507    3.21661142442527    0.74855449669583
H         8.83754665685375    2.59947611366914    1.78738869184730
H         6.45667536316467    0.30140811189632    0.06919112504470
H         5.22860861296799    0.29807252804181    1.33921370791679
H         5.46344401641912    1.74002658775203    0.34133494332351

