70
CSD_code = TAMZAJ | q = 1 | S = 0 | Stoichiometry = C18H45FeN2P4(1+) | MND = 6
Fe        1.94757956820416    3.19502261002864    4.65368463658702
P         3.81642294430441    2.65232048603819    3.57908932022810
P         3.28956853457479    4.91881175769004    5.05389330881111
P         0.32331716330240    3.83311252785790    5.95672220334969
P         0.90199281160605    1.31182900938894    4.31964625076907
N        -1.51830748107170    1.94236898487096    5.33941048640699
N         1.14600427578332    3.97687236423719    3.26525790332683
H         2.63162551058652    2.59873691269865    5.78862302656947
C         0.64047539704438    4.51922430583093    2.37812393879392
C         0.00861673066437    5.17485001155654    1.27034899969789
H        -0.41771794218223    6.12667105234202    1.58933731119859
H        -0.78801014188033    4.54663175559513    0.87003080223614
H         0.73615308972200    5.36229905697282    0.47978167940144
C         4.92162467941106    1.22626537201918    3.87905674390149
H         4.60602382907707    0.35668241670208    3.30548025435012
H         4.89865235941593    0.98114352632942    4.93930815629500
H         5.93511074835282    1.50216633599174    3.58296315041621
C         4.13529343759187    2.96272306836661    1.79959480327662
H         5.20770498321716    3.07073126912316    1.63559752121335
H         3.62161381386627    3.87211528891025    1.48994718140121
H         3.76472748965279    2.12649341577208    1.20917442062769
C         4.76111383817700    4.02754757095714    4.37905618438329
H         5.40745489410444    4.61114774616691    3.71752538020212
H         5.34027170828043    3.61954459143425    5.21268960732049
C         3.95417775853208    5.57084060661095    6.62925664256086
H         4.90579587653531    6.06372483933047    6.42281068995532
H         4.11067568136907    4.74002427655042    7.31513920431642
H         3.27194468964241    6.28592291924638    7.08546331990351
C         3.26296941792571    6.43585653971571    4.02408021828033
H         2.46665588046389    7.09832541303795    4.36008048024132
H         3.07840372664349    6.15975238525448    2.98657850672117
H         4.22024643373759    6.95093692775141    4.10516762220224
C         0.24674421720107    3.28455897794785    7.70485400157088
H        -0.61709786806434    3.76066933377959    8.17887233208878
H         0.06132580728387    2.20723708321122    7.66548040170533
C         1.52623511837411    3.57137614283143    8.47241844935370
H         2.37242269727979    3.15257471274894    7.93230523604972
H         1.48664144260897    3.12119256602915    9.46151145664997
H         1.67977240709239    4.64195558520693    8.58825077584934
C         0.18052176838018    5.67336139000246    6.02008147500146
H         1.15755424685773    6.02831214814525    6.36548495079962
H         0.07777051074884    5.98451729409809    4.97352575969215
C        -0.92631985387920    6.28717831803167    6.86736981614611
H        -1.91082125083659    5.99779363022966    6.50949951866770
H        -0.86026156875235    7.37256598267616    6.81632290082216
H        -0.83282075461870    5.99784805890890    7.91072840434823
C        -1.38924957001209    3.38063418040355    5.43802695134916
H        -2.06829051916802    3.74075849728134    6.21745392643580
H        -1.63786015680129    3.89657741820213    4.49013713914162
C        -2.89916586816912    1.51331027596571    5.49234574274838
H        -3.55360534974886    1.90015375663040    4.69924298314666
H        -3.27556123121751    1.85499551675537    6.45516363998259
H        -2.93862017507605    0.42555451551104    5.48019092901787
C        -0.92838869272290    1.43823678050870    4.11632310386963
H        -1.17232219772182    2.07349309884509    3.24547004091361
H        -1.30123235080002    0.42618822511551    3.92311879713210
C         0.94276688001585    0.01219492472837    5.61453013193160
H         0.40309375356075    0.42732008061425    6.47022830319977
H         0.38260552919206   -0.85205650494273    5.24121162376227
C         2.35089778737405   -0.38825564536164    6.02281842695150
H         2.87324618317208   -0.87148007271456    5.20036784088796
H         2.32054644005619   -1.07838341110638    6.86251127843386
H         2.90811177058421    0.49714256444786    6.31981346759883
C         1.32843975214222    0.33660045084729    2.81132027662236
H         2.40769687655913    0.16114326374019    2.85523904078339
H         0.82076057932843   -0.63179711563833    2.87115789077138
C         0.97541308570035    1.04699075205493    1.51140856698079
H        -0.10196229008744    1.09677639580369    1.37507925731778
H         1.39522260799138    0.51174991765862    0.66170814201428
H         1.37140852952760    2.06031556640866    1.51680706532175

