71
CSD_code = TAMZUD | q = 1 | S = 0 | Stoichiometry = C20H44ClN2OP2Ru(1+) | MND = 5
Ru        5.61892507562359    8.27032399107247    9.91806072156163
Cl        3.62199337476756    7.42680246023751    9.08105968042564
P         6.17341801339508    6.27227239337580   11.08713328782661
P         4.86853525274079   10.42142811398572    9.35787545320171
O         4.56126836997889    8.77059426631350   11.80041677171650
N         6.47758978350444    7.84757694912802    8.42480696281709
N         6.99890908785716    7.54536612258098    7.48770756813511
C         5.52719923979420    6.78097224855193   12.75944401932191
H         5.31397933759212    5.90625878777260   13.37599344048842
H         6.30281339723463    7.37198725992509   13.25587319112070
C         4.27398119847806    7.64296588320165   12.62822454932664
H         3.44195388196308    7.07543580081831   12.19410143144302
H         3.96936204807063    8.01199944955501   13.61901861334369
C         3.42012558464519    9.60617276653871   11.59070528301958
H         2.99032576012789    9.86305101908173   12.56874178369756
H         2.66750972634350    9.06097870683749   11.00472319654700
C         3.86726425306840   10.87181931115244   10.86432499964969
H         4.48218261327161   11.47086338775295   11.53910655186508
H         2.99420566577090   11.46013290384164   10.58353565274415
C         5.36002658565025    4.60287533461470   10.71775111442220
C         5.95554821726691    3.43446990482279   11.50056106008769
H         5.36529114808583    2.54446326964877   11.28846983077995
H         5.91042609467736    3.60795899394186   12.57426127288180
H         6.97868063564831    3.21779649251076   11.21103467013118
C         5.50500992530840    4.37636363897175    9.21053962011793
H         4.95838465053662    3.48211954357071    8.91969650819279
H         6.54194475586678    4.24515474916647    8.91559450882594
H         5.09083396996388    5.21861819688598    8.65549824758325
C         3.86996825460500    4.68083865276621   11.06448067662499
H         3.38444237447539    3.77144272344484   10.71558096018241
H         3.38819695165995    5.51537482353860   10.56267530078372
H         3.70630670137265    4.74607291584434   12.13837461730080
C         8.03306899268839    6.07341474079900   11.39405733686331
C         8.60875772249405    7.49471683508303   11.40485260244109
H         9.66927896869757    7.45635245394925   11.64717552543487
H         8.12772620840630    8.12648459942243   12.15318508642193
H         8.51843597019971    7.94624524265084   10.41187354898515
C         8.66880925489645    5.33862115349056   10.21239513111659
H         9.75153707861493    5.44083579399316   10.26315255236814
H         8.33593898884077    5.76613233578521    9.26569020307323
H         8.44161581363146    4.27746570741215   10.21908279120032
C         8.39033454926757    5.39258847622582   12.71419893068584
H         9.47503236461962    5.33638353737205   12.79205613507425
H         8.00682865886585    4.38140418108896   12.77685976776997
H         8.02885902891322    5.95493092035331   13.57165824732685
C         3.86712025683296   10.96249211381350    7.86326113084570
C         2.40833638312090   10.55082248811807    8.08220685550887
H         1.87751805437204   10.62140975618101    7.13523023205490
H         1.89936218779800   11.20124669173016    8.79006285308282
H         2.33642197710270    9.52025484425170    8.42354511668150
C         3.94700783000907   12.46857407601476    7.63298333635322
H         3.23284465452121   12.74572743289508    6.85974597033605
H         4.93354920860641   12.77072094210311    7.29240096681744
H         3.69414283153333   13.02239369057949    8.53583457231393
C         4.42846118306193   10.18282811395340    6.67220707735914
H         3.86738974364922   10.42743195511287    5.77320792886391
H         4.33791129720108    9.10985030983792    6.84604899253619
H         5.47474680322936   10.41578665621434    6.48904427099026
C         6.46467288175406   11.39468287283697    9.62851628381458
C         6.34403752340160   12.87456227471427    9.97986621062672
H         7.30991300044029   13.23228130210879   10.33424901237432
H         5.61436894925917   13.06146808891198   10.76411916331912
H         6.07255808594616   13.46853138126894    9.11362482583627
C         7.09601301327380   10.62648944889959   10.80270031230192
H         8.15155148950532   10.87697830226575   10.90430152724918
H         7.02993495207922    9.52509903835453   10.61232754605001
H         6.60479283357225   10.84661308839464   11.75115741251904
C         7.36290057978780   11.22287807717442    8.40252603790572
H         8.35996636575308   11.60428785197794    8.61748294623960
H         6.97901527398355   11.77497021425267    7.54917367757184
H         7.45533711069149   10.17059194893680    8.12326633548038

