65
CSD_code = TANBIU | q = 0 | S = 0 | Stoichiometry = C32H25MnO5P2 | MND = 6
Mn        7.76308596927534    5.44105014816721    8.39335135573366
P         8.86007343692556    5.94513637246513   10.28687887024099
P         8.67506918701833    7.46161935214643    8.05454386020461
O        10.03026954565211    3.92910777856255    7.35662247656370
O         6.22927466262872    5.20918906957260    5.90977848081646
O         6.47956319929322    2.99471554959924    9.36038492922476
O         6.58791481090279    9.34755996400464   11.25655067792589
O         4.45894594862870    8.59865021060268   11.23604657469601
C         9.13405593620293    4.53110578450940    7.74920151250127
C         6.82169560862896    5.33027866028778    6.89013121338301
C         6.97220298921315    3.96840697375183    8.99726664759461
C         6.55563176089973    6.61868136604639    9.28525984820380
C         6.06541639143064    7.49097898285398    9.98080507036753
C         5.74561010003774    8.56246546960179   10.86266013265413
C         4.11212391799673    9.62381996015380   12.14838610282736
H         4.71244803386029    9.54227409783124   13.05826088647043
H         3.05708394920718    9.48850736313383   12.37366774491991
H         4.28519652248680   10.60620200605219   11.70210838736232
C         9.22958884038640    7.68845885938289    9.79772405546033
H         8.55498663634613    8.37288173563276   10.32908670839567
H        10.27731473524010    7.97347729553488    9.93291814726943
C         8.12840472616015    6.09249545243392   11.93509046845660
C         8.71052582799878    6.95663397067904   12.85742788828160
H         9.61093444833007    7.49711532723701   12.59560099475513
C         8.13016866437470    7.12058506900245   14.10025928083888
H         8.57234246817703    7.79869117448108   14.81543439458439
C         6.97664099111688    6.42319460848375   14.42513532693345
H         6.52054399833405    6.56200961477878   15.39451473701172
C         6.40559528469680    5.55255518355571   13.51147716637688
H         5.50719715450839    5.01048501488910   13.76694012887305
C         6.97911225483805    5.38541862929774   12.26376960551682
H         6.53206741245450    4.72288655773627   11.53437492101938
C        10.50764639176438    5.26341798380983   10.63153885853347
C        11.53575710012503    5.48869278384243    9.71865978303181
H        11.35953476475762    6.10605898127326    8.84368458337866
C        12.77744188486611    4.91864960062950    9.92055296285118
H        13.57284904446726    5.09936482382341    9.21238949435786
C        12.99634257046153    4.10918215238311   11.02435243101364
H        13.96681397318546    3.66192051395956   11.17974554977932
C        11.96959478271016    3.86346820166931   11.92131192228261
H        12.13834438079480    3.22266847268180   12.77422519704314
C        10.72362396317194    4.43094878860487   11.72538899728427
H         9.91552463786931    4.23588796135944   12.41769611844939
C        10.14723071507895    7.72499195844650    7.01315290343552
C        11.17101930789207    8.61271741341772    7.32655033886221
H        11.14381528676171    9.18124060824535    8.24610528299383
C        12.23388404759443    8.76708394901713    6.45549275152629
H        13.03376994992160    9.44991729010278    6.70274915202519
C        12.27576272292630    8.05062228104904    5.26987601915549
H        13.11141756123172    8.17365955022269    4.59712732599075
C        11.24797483546900    7.17989596892936    4.94590849640589
H        11.27756355229429    6.62524731433180    4.01999801637937
C        10.18550228229792    7.01743074907457    5.81512751732143
H         9.37536678958860    6.33527763111274    5.57996503359513
C         7.73455019388351    8.96035090685153    7.65647183419371
C         8.09932872652147   10.19436122458285    8.18184755651860
H         8.94308387107627   10.27640194202003    8.85237741508742
C         7.36261285981557   11.31784857309736    7.85728424100488
H         7.63535419547789   12.27634601306315    8.27402679686066
C         6.27312933890203   11.21526176239324    7.00720078984951
H         5.69741427880514   12.09589931399537    6.76275826990671
C         5.91724453594649    9.98678006869941    6.47498644222228
H         5.06621479113787    9.90734121240940    5.81501746625469
C         6.64713309597208    8.85791915334249    6.79770515748463
H         6.36936815394035    7.88860724902930    6.40416669939167

