96
CSD_code = TANBUG | q = 0 | S = 0 | Stoichiometry = C46H43F3NNiOP | MND = 4
Ni       17.91383369776153   11.65723600154867    9.82508591293642
P        15.97466584236638   10.82648478455413   10.36945837034520
O        17.13082409010906   13.39774169422900    9.68208872786068
N        19.68944310319897   12.44637815845699   10.45671734523316
F        22.21694795395944   13.54584601949311   11.28564269074531
F        21.51412319461464   15.41044851130344   10.52401303144754
F        20.93659206179069   14.76796923911247   12.49363396161516
C        18.47315949271105    9.96231361355762    9.33807635257839
C        19.13237597102201    8.91968880047151    9.97377579220718
H        19.37986534374503    8.97151296959368   11.02257718987027
C        19.49632692594976    7.78976040536980    9.25559584278912
H        20.01897301905704    6.98954708943381    9.75952467427511
C        19.19163853174658    7.67927348450855    7.91105163703522
H        19.47031702279609    6.79207197454620    7.36103692675754
C        18.52334426331962    8.70987680877300    7.27044796078545
H        18.27713230684272    8.63036978497494    6.22078327329770
C        18.15956160592175    9.84054496629788    7.98234783026541
H        17.61704308618915   10.63599021466468    7.46749831006877
C        15.09753426074822   11.95700078845260   11.50515228694058
C        13.71022325381861   12.05020741361436   11.52847327479515
H        13.11530104170223   11.42692285391338   10.87578887554491
C        13.09301579533005   12.95045882114543   12.37914592772328
H        12.01519953454371   13.02441888534539   12.38934107847442
C        13.85108260214879   13.76107841332968   13.20862216673297
H        13.36453709861757   14.46942742870728   13.86261586218770
C        15.23321183223664   13.66725375289944   13.19306356273333
H        15.82712961008759   14.30134032534074   13.83470170190916
C        15.85371971385248   12.76906956482992   12.34461696395203
H        16.93381936364950   12.70560165540859   12.31117928976438
C        14.78528987673123   10.69805049568058    8.99482345756399
C        14.86823295444291   11.67206817118347    8.00342814261947
H        15.63322738474940   12.43398908262720    8.07606884119738
C        13.97891995220687   11.66915175594604    6.94515789250715
H        14.04646825060567   12.42902218246260    6.18028976572687
C        13.00215643301679   10.68948443923335    6.86631810257548
H        12.30795880891129   10.68234916260573    6.03893360294480
C        12.91533162627478    9.71815972233255    7.85033219646403
H        12.15228641103281    8.95558339398187    7.79051806799593
C        13.80025880278937    9.71939103508958    8.91434816312515
H        13.72610512706259    8.95942412351320    9.67926858253800
C        15.82040441765677    9.21447053448550   11.19990854548029
C        16.08137096963282    8.06122048888570   10.46263670657698
H        16.31516023375608    8.14414553460471    9.41044760861424
C        16.03909329056879    6.82227933993689   11.07186902146856
H        16.24015645790887    5.93270517821884   10.49351862353125
C        15.74538798036344    6.72198105161605   12.42303745830829
H        15.71550462810271    5.75325272310703   12.89938131437096
C        15.49321265169933    7.86546840785758   13.16160857898704
H        15.26591203179975    7.78984670137006   14.21488839212116
C        15.53398651155665    9.10912318882965   12.55558385785285
H        15.34142818146541   10.00028196944382   13.13601449225989
C        20.73719465698434   11.53033383793639   10.71562431241945
C        20.92897074342996   11.05118912996633   12.02026584861889
C        21.91632888538225   10.10204162351770   12.23259518180298
H        22.07599910383698    9.70751216202047   13.22346575330367
C        22.71111015213069    9.65750600107604   11.19327135855434
H        23.48604433845128    8.92910410889598   11.38209933884168
C        22.51673537564716   10.14269604326183    9.91489910413796
H        23.14735276966282    9.78986366180709    9.11485935684425
C        21.52477673470495   11.07363743056331    9.65056734236971
C        20.04059980024407   11.52863916490477   13.14972708711656
H        19.72098280101811   12.55367318552511   12.93604211597157
C        18.78333451103091   10.65495973630181   13.20695779452319
H        18.25620521938819   10.69937344441690   12.24641976829260
H        18.11294150521648   11.00084714695785   13.99141887579193
H        19.04565713872638    9.61836626247064   13.40888244599473
C        20.74639627655511   11.55219805717062   14.50455753723073
H        20.91654007812109   10.54646259642921   14.88082658224876
H        20.13018293484311   12.08114105635167   15.22871785586067
H        21.70146594131404   12.06601360359967   14.42617476561438
C        21.28635536583817   11.60188489765468    8.25442521911980
H        20.22116374941239   11.86703301772276    8.17762505728975
C        22.11735104755363   12.86413301437060    8.00432785392830
H        21.80856289189922   13.67964453101331    8.65183340342040
H        22.00000819877009   13.19107159733086    6.97291580625774
H        23.17063244868013   12.66322492064260    8.18901071635382
C        21.58963350893271   10.56618883871205    7.17215606110906
H        22.66182394661006   10.43553942673088    7.04580195356385
H        21.18024289408084   10.89926201493326    6.22052716996494
H        21.14302267076594    9.60782108503746    7.42280525274540
C        19.83930814244082   13.72754434912374   10.67031675173089
C        18.88778909409972   14.73794216750293   10.48476366141422
H        19.17109816771830   15.73843904100126   10.76479783501720
C        17.59870071028560   14.52772299911601    9.98612849542112
C        21.13435601567166   14.32609506178893   11.23244017574685
C        16.68881977496997   15.69252880112488    9.82998258140825
C        17.15171515144148   16.97532613745487    9.54981006263970
H        18.20758576365643   17.15473339017069    9.41406719559601
C        16.25846180873842   18.02189280487573    9.41303148769044
H        16.62566648293825   19.01351781794388    9.19187342074979
C        14.89745905651736   17.80396700824566    9.55481202314504
H        14.20484641216508   18.62653586761926    9.45285964407563
C        14.42813297309629   16.52774346433086    9.81907867935454
H        13.36759473326515   16.34945258417400    9.92365906066329
C        15.31639833666956   15.47784580703683    9.94726312101499
H        14.95705708451603   14.47926799437529   10.14907664818094

