60
CSD_code = TANBAM | q = 0 | S = 0 | Stoichiometry = C16H38Cl2OP2Ru | MND = 7
Ru        2.55371927753833    1.11733113670027    9.05843348153937
H         2.66097183805528    0.20589458105579    7.83066017905915
H         3.80942944844296    1.00456378689443    8.18578939492690
Cl        1.83407616356731    3.08419777356343    7.89197886694269
Cl        3.02165310660828   -0.65068992456806   10.58986009904753
P         0.45348151924998    0.14400863247533    8.78534794577195
P         4.22677749930264    2.29688694860536   10.16806140535996
O         1.37343543214014    2.02829216360686   10.84186919948693
C        -0.53252278094913    0.76074641594804   10.23235914914920
H        -1.60231239015157    0.78882903127217   10.02124332161295
H        -0.33952033148129    0.07460933318857   11.06391527812235
C        -0.01907986198358    2.14191435777032   10.60726692388572
H        -0.20829823015614    2.87197845114837    9.80610047231566
H        -0.50461120385578    2.49817811064544   11.53002370440005
C         1.93945879292795    3.20835733756739   11.38191263711035
H         1.38551471994398    3.47787871676664   12.29603832626578
H         1.84691030081569    4.03336081239286   10.66012064042054
C         3.39601227929401    2.91657355195077   11.70739599116828
H         3.43957051927336    2.10391515739701   12.44037864535794
H         3.88745214472470    3.80223876534109   12.11319232695188
C         0.31344410460591   -1.69135558293386    9.06937652263713
H         0.74789011301380   -1.81216643032939   10.07081787551659
C         1.17925413799299   -2.48797082979234    8.09913835189776
H         1.21510433779369   -3.53015359287704    8.41123723677433
H         2.19748668779457   -2.09958192678871    8.09874918023068
H         0.78006870554772   -2.45063836708109    7.08739084301367
C        -1.11800453417289   -2.22022162660574    9.08347139359182
H        -1.12046738250512   -3.22640550532986    9.49943037243210
H        -1.52635323334540   -2.28169881913850    8.07669043067061
H        -1.77614445594339   -1.60338260584934    9.69182567940810
C        -0.61063575116809    0.48725758376006    7.29171239967389
H        -1.36594985128196   -0.30771240979636    7.26245226484800
C         0.26862793921891    0.40669232728499    6.04580020965987
H        -0.34019957526981    0.49909184996303    5.14793134577843
H         0.81324587578014   -0.53439093167877    6.00008686051256
H         0.99323520492580    1.22005144358659    6.05612428119958
C        -1.31761706016441    1.83886530722993    7.33438327603948
H        -1.88541371226791    1.97197945593600    6.41455192045213
H        -0.58875241542214    2.64389558654004    7.39593718793629
H        -2.01310661303184    1.91593159042135    8.16807545073446
C         5.05058691852041    3.80388999953402    9.43861651888491
H         5.95108395715654    3.98235679500087   10.03874522237317
C         4.18156928069907    5.05783483557867    9.47193777541486
H         4.72187080399727    5.87727856831110    8.99983335581407
H         3.93666571733553    5.36317143685375   10.48771557199375
H         3.26436256628691    4.89654896394220    8.90964796340551
C         5.44563720107420    3.49164370307055    7.99737045622885
H         6.01763478130417    4.31672970716050    7.57610515183020
H         4.54952187792594    3.35129700673984    7.39420337534273
H         6.04587904488803    2.58625746705576    7.93390043985430
C         5.60835127552656    1.30278818830031   10.92527125664020
H         5.06942808745836    0.60989393401840   11.58479453207956
C         6.34091573433627    0.45989055669682    9.88639448511199
H         7.00430126389288   -0.24290911508850   10.38718516732077
H         6.94154561451601    1.07799318813494    9.22211473187306
H         5.62500079588823   -0.11123672533577    9.29539689837534
C         6.58970096133495    2.11875275987406   11.76143199120429
H         7.18695309229131    1.44144475719959   12.36963835504432
H         6.07928021556342    2.80933932463602   12.42996755181344
H         7.27428004459605    2.68088299207548   11.12929812749132

