89
CSD_code = TANCER | q = 0 | S = 0 | Stoichiometry = C41H41F3NNiOP | MND = 4
Ni        2.72076877770588    9.76352965280697    4.50943606262292
P         1.22298541870008   11.28938210617589    4.06919487265553
O         3.69337635208725   11.05207821470431    5.56383791404703
N         3.29556550645938    8.22669590632402    5.74195125076391
C         2.17075973863408    8.80123133062281    3.03357206503702
C         2.95124703256246    9.27533345271982    1.97595078589738
H         3.64536731884779   10.10391017089019    2.13115177111972
C         2.85400572361877    8.71207264162221    0.71500504920125
H         3.46610130031485    9.08768372543356   -0.09294156494284
C         1.96178194979184    7.67594112678200    0.49138479796831
H         1.87658993097839    7.23898937282532   -0.49302949031006
C         1.17962500469822    7.20807828951142    1.53143445312906
H         0.48281457326117    6.39948676506167    1.36323494428987
C         1.27238381383308    7.77017269341362    2.79675986676672
H         0.64232840920782    7.38487739580621    3.58288911931296
C         1.74514063678048   12.55464647003154    2.86801718963731
C         3.08931635250797   12.91741265923512    2.89173809910887
H         3.75378880811908   12.43426782516778    3.59524304817351
C         3.56335704888176   13.89486419666898    2.03720679566832
H         4.60621469084060   14.17490663092082    2.06220061782243
C         2.69893664310412   14.51460604844820    1.14908139054571
H         3.06703864374244   15.27657223149210    0.47788383001224
C         1.36042325126126   14.15855370567782    1.12356714872062
H         0.68501406203107   14.64558517115733    0.43505415651607
C         0.87938810315600   13.18343327543131    1.97979779793816
H        -0.16711784580350   12.91438018124819    1.95843181777331
C         0.91706375886933   12.29163923651556    5.56280961179821
C         1.02454893224888   11.67337586253007    6.80468843761499
H         1.27507190932403   10.62077809178098    6.85213864968368
C         0.83993927171677   12.40032954976644    7.96555374209931
H         0.94097463363796   11.91858984232697    8.92683429940997
C         0.54598643039447   13.75223714995046    7.89324281665249
H         0.41516298493732   14.32509339170206    8.79914193076541
C         0.43188492214904   14.37098447410602    6.65930663226374
H         0.20718877927496   15.42609188391729    6.60296712416831
C         0.61717500472339   13.64695968019428    5.49487106420523
H         0.53934329785228   14.13660627782329    4.53453882967690
C        -0.45326849751943   10.84951465397231    3.51178700119142
C        -1.55616949465153   10.93507617624686    4.35265891068662
H        -1.43944363408699   11.32195679402175    5.35508777726133
C        -2.80199112079389   10.52928782695735    3.90669323222171
H        -3.65630725795672   10.60198819437992    4.56376785994036
C        -2.95438634763261   10.03008180768727    2.62442701963511
H        -3.92749186698742    9.71272681128497    2.27994694796074
C        -1.85583758515438    9.93585707691189    1.78400358022603
H        -1.97045247602243    9.54421191595853    0.78408225173010
C        -0.61024050153030   10.33814616477509    2.22512641228021
H         0.25002269552817   10.26167878601004    1.57498622687506
C         2.87106305183057    6.92365816640189    5.37903289813867
C         3.59612108017843    6.20190640257538    4.42048992304976
C         3.15224607174964    4.93638729057619    4.06801631864412
H         3.70311818246396    4.35738440652540    3.34438313986612
C         2.00876811936513    4.40339453894412    4.63069882521228
H         1.67434994114448    3.41747445946736    4.34297626119597
C         1.28783983602882    5.13212693364877    5.55834208205717
H         0.39009697344131    4.70670734177618    5.97794456075094
C         1.70857594371311    6.39083124233755    5.95869079105638
C         4.83284748881722    6.80612219738316    3.79559973561718
H         4.70711027888063    7.89902380794461    3.80763519857788
C         6.08121479594197    6.45841884241219    4.61245543080406
H         6.03570409611469    6.89821018698565    5.60420243233176
H         6.97022532241837    6.83757025447442    4.11270439283928
H         6.17649747574958    5.37878465797354    4.71510756769958
C         5.02982773012865    6.37205877388223    2.34358522985137
H         5.38701979945034    5.34630364266491    2.28578417791745
H         5.77148765729711    7.00998253453977    1.86746776932974
H         4.09882288039990    6.45462569925943    1.78953393158864
C         0.91082405517049    7.20959246442648    6.95196050805006
H         1.60226119182908    7.85370465516650    7.50343522082626
C        -0.05808903775379    8.12076787412369    6.19152384659310
H         0.50302266547105    8.77207289582283    5.51116756171262
H        -0.62262177899815    8.74172105849473    6.88434539952228
H        -0.76102879090252    7.53188201088467    5.60572887271156
C         0.15858390661350    6.36019437443763    7.97561014707779
H        -0.68402583558120    5.84620863896606    7.52001635159465
H        -0.23036438506694    6.99852454312858    8.76647394004657
H         0.81911505900378    5.62076795027714    8.42327897378689
C         3.98936971267298    8.38355780380762    6.83448620114391
C         4.43144525196046    9.64013027899350    7.32358360076376
H         4.94671847630642    9.65237848983457    8.27067231943160
C         4.24399562237280   10.83488097827159    6.67392915960342
C         4.34901627185870    7.21457255088901    7.71910880274795
H         3.73059121217462    7.23863809520740    8.61629915156544
H         5.38751052775504    7.29128426047527    8.03457752643847
H         4.19083394180720    6.26397872904453    7.21682415582312
C         4.75810255022095   12.08131958242791    7.41033925643127
F         4.12295857044038   12.26619845984839    8.58699834772257
F         6.06959692667300   12.00627216774633    7.70946764800405
F         4.58737207793492   13.20347786957297    6.70430819414179

