31
CSD_code = TANDUI | q = 0 | S = 0 | Stoichiometry = C12H14Cl2N2Pd | MND = 4
Pd        2.81692576383373    0.00242317111827   15.72702804043553
Cl        4.44347512693648   -1.59881551681983   15.86595736645027
N         3.13403709859021    0.16015153550117   13.82464283226618
C         2.34286769999591   -0.46735018039505   12.95532839411202
H         1.52721248241754   -1.05262063964713   13.37961222856286
C         2.53621771960213   -0.38275755000375   11.59100000272112
H         1.87395356774914   -0.90764193947913   10.91991934536588
C         3.58729401509440    0.38149780924684   11.08767020599776
C         4.40056469488339    1.02965551260084   12.01239882417608
H         5.23060462566174    1.63485614464863   11.68200246915885
C         4.14420133417994    0.89450381122972   13.36380133055147
H         4.76708280555411    1.38402685883248   14.11211771829508
C         3.81221487865534    0.50674790290532    9.61752590431542
H         4.79390542377951    0.92152648320519    9.40605072231139
H         3.05925323250429    1.16593057681096    9.18556513324328
H         3.72148029696430   -0.46284053549532    9.13256929642348
Cl        1.18982698368849    1.60376713362992   15.58871149947837
N         2.49906629797860   -0.15638086554298   17.62924056126399
C         3.28947251619590    0.46931776563308   18.50053420316152
H         4.10555909599406    1.05534385886952   18.07818498533249
C         3.09473852686579    0.38217318384576   19.86454344531923
H         3.75647051127820    0.90561181487201   20.53727432725919
C         2.04304421449431   -0.38282760764727   20.36541011653462
C         1.23059064993525   -1.02913043434691   19.43863137615050
H         0.40013473381742   -1.63484544144031   19.76705436286897
C         1.48833127852665   -0.89148910824646   18.08775268946140
H         0.86595860287235   -1.37933499679107   17.33789371117419
C         1.81674074196908   -0.51118243449659   21.83508915485048
H         0.83459339860288   -0.92581913289344   22.04472004886019
H         2.56888397270844   -1.17178550759853   22.26633519280825
H         1.90759770866976    0.45728832789836   22.32223451108878

