69
CSD_code = TANFEW | q = 0 | S = 0 | Stoichiometry = C36H26N2NiO4 | MND = 6
Ni       28.10567900235507   12.78645653794163    3.48232291841541
C        28.33572225952148    9.99178114851878    4.32014924796656
C        27.74053096223972    8.69207678328378    4.48233477554286
H        26.72595984569237    8.58322566972972    4.12866242593542
C        28.41290659897196    7.66729566562361    5.04656351540938
H        27.94496614916088    6.69823218753927    5.15626472714917
C        29.74215876026556    7.82617688373187    5.52861760317686
C        30.38682538381958    9.08039267351813    5.38930363579184
C        29.69089594468943   10.16684094013561    4.74597328784505
C        31.67892820308514    9.19684322241398    5.93261897347871
H        32.20514554785127   10.13837040574459    5.89590031094050
C        32.30513052021236    8.13676210559366    6.54166142217335
H        33.29831073566444    8.26458750892371    6.94808993510089
C        31.67031269276049    6.90013854009940    6.64992185316011
H        32.17202955272442    6.07348243897702    7.13038449711647
C        30.40090042238361    6.75626358160349    6.15156050812527
H        29.88261739026018    5.81150006895000    6.23872263619863
C        30.35596787604186   11.37804314374156    4.47235691006992
H        31.43406087395753   11.36743574863913    4.62261133709142
C        30.71796868377507   13.55574450714648    3.74062605681720
C        31.83403517970644   13.82818807858250    4.53505277112172
H        31.99818059792486   13.25604749694432    5.43600503943493
C        32.71415585652159   14.84069710468074    4.20497060685065
H        33.56885336060611   15.03138603154149    4.83640187114502
C        32.50029485796760   15.61284130098934    3.07649997486050
H        33.18950534524065   16.40085159339609    2.81474667563847
C        31.37301742761045   15.39730455982043    2.30258985753829
H        31.17025704723484   16.03045835056111    1.45099481269503
C        30.47612877769651   14.39523367979581    2.63534276771518
C        29.30554432554847   13.99130509467049    0.57351769664499
H        30.17445286014942   14.44232960057147    0.08298854752160
H        28.38561193485243   14.42727725931793    0.17013487521141
C        29.29987189010615   12.46290593904310    0.34825198398169
H        29.03647016263479   12.23494841899145   -0.68987404778805
H        30.28880386628405   12.05235926867863    0.57743808141977
C        27.09431841112817   11.67783079138187    0.89905751576860
C        26.75851652035531   10.88212259915997   -0.18416490934326
H        27.54212498250993   10.46247053724736   -0.79821616494284
C        25.43227303897786   10.59358782218800   -0.45611652041343
H        25.18005939358303    9.96629913934055   -1.29717685431074
C        24.44068117050312   11.07989934221356    0.37793194295707
H        23.40773925509234   10.82388017482264    0.19610637790110
C        24.76496721825882   11.88788369117450    1.45065254868915
H        23.98245740846434   12.23270773368768    2.11002781361129
C        26.09123683076496   12.23740900329514    1.71487449421975
C        25.65111795948048   14.11980868226474    3.00783134354834
H        24.75831640393230   14.19877648286414    2.39005219385848
C        25.83605484256941   15.15417059648648    3.94595977662452
C        27.09935781417867   15.29555952114014    4.60364345498250
C        27.29934604456516   16.44994142029100    5.43863488644016
H        28.27083525466128   16.54314247663240    5.90103472431747
C        26.32600836379468   17.36380688829032    5.63378926634643
H        26.50039451898611   18.22491915856288    6.26478974076828
C        25.04221781000834   17.22136041986365    5.03702419549205
C        24.78615393611688   16.11011011763766    4.19583164298584
C        23.48425482747672   15.98966805821897    3.67734166968454
H        23.21542491819991   15.14278136590609    3.06477292910023
C        22.51108846649364   16.92176111367427    3.94376748947578
H        21.52166626701894   16.79503083613535    3.52793769067269
C        22.78252834424625   18.02472035410003    4.75231670438639
H        22.01007244570176   18.75146738344285    4.95499563072063
C        24.03487153451639   18.16268179080965    5.29368594293886
H        24.26364652737556   19.00092004036672    5.93696916240203
N        29.85203037184821   12.48420120458917    3.99159675923602
N        26.45254096907295   13.12312197486807    2.73761397495179
O        27.63475771380499   10.89169128076315    3.77428566657437
O        29.28008748738128   14.25599240694754    1.95847133305754
O        28.41327208788158   11.86218202288564    1.26580280604371
O        28.06897996553948   14.49461002926259    4.47156667975609

