91
CSD_code = TANGOG | q = 0 | S = 0 | Stoichiometry = C36H32Cl2N4O8S8Zn | MND = 6
Zn        0.00052483005483   -0.00031192704347   -0.00054294955512
Cl       -1.75407505902669   -0.62096006481664   -2.28354904396078
S         4.77905655738619    2.54524258457364   -4.88874101951407
S         3.76394260690278    5.03585454366927   -3.74235749256787
S         5.31157757895688    6.75812408271866   -5.73042415586612
S         6.40127027596275    4.00230976028915   -7.01778980717292
O        -1.11596811503873    0.55664590033778   -1.72407250351544
O        -2.45396622863073   -0.22894187513581   -3.44365697188248
O        -0.73978276669968   -1.56006027794912   -2.60343399258931
O        -2.63691441778508   -1.15516069092553   -1.31167286985764
N         0.55178496312659    2.09029545292831   -0.20522649455077
N         1.64250010383299   -0.39080999927334   -1.28094881042114
C         3.76866332078775    7.71785798640376   -5.49354875559332
H         3.50656465840875    7.66535628700084   -4.43700882835948
H         4.05644587917360    8.73859349254960   -5.74182745556600
C         2.64531994048658    7.22896983043035   -6.38412717303088
H         2.94853771577107    7.25849999800191   -7.42792616925844
H         1.77277057252170    7.86543724505111   -6.25536653550805
H         2.36513089028231    6.20858126412735   -6.13168802474915
C         6.81323856630127    2.16633355400149   -9.01125073163983
H         6.54370340231995    2.93202581284362   -9.73421341939597
H         6.59774650834514    1.18985116553043   -9.43830575604821
H         7.88056352091998    2.23499863433318   -8.81811837141979
C         2.98392432325694    2.57912094897398   -2.82187345188525
C         1.95678236864681    0.81185352641494   -1.71914585553799
C         3.74443894017024    3.29387703197917   -3.69912448522491
C         2.07013169885170    3.11525814648072   -1.81868561764295
C         1.74423243981860    4.38298237141125   -1.35844847071781
H         2.17679281443131    5.28331214634055   -1.76775248699397
C         2.91577479041524    1.12661325800239   -2.70745475686998
C         3.57903944043817    0.05812742947923   -3.29281911084922
H         4.32569314304632    0.18371136859717   -4.06215140132590
C         0.27957197367094    3.30693566661339    0.24389102984690
H        -0.37183420111777    3.37301284797422    1.09978768784202
C         3.26246717578490   -1.21128814359604   -2.82632487012336
H         3.76705157217872   -2.07212685254107   -3.23665527224113
C         1.42958610332114    2.02854958649295   -1.18562268375335
C         4.81530288315075    5.18643826493208   -5.14917452066149
C         5.28178607950664    4.03670804797258   -5.67811140166206
C         0.84488100498176    4.45525701523113   -0.30354344388295
H         0.58226763325460    5.41675953116143    0.10981123281408
C         6.02836181860164    2.34691092192307   -7.72806973186428
H         6.31094227233961    1.60177093393015   -6.98392663401561
H         4.95472441214457    2.30204666844458   -7.90864525711694
C         2.31171347548931   -1.39666091306394   -1.82846326620998
H         2.10057797979193   -2.38397079544250   -1.45325845461732
Cl        1.75468212844840    0.62053586292877    2.28360717958629
S        -4.77912356959121   -2.54365880200746    4.88790355975429
S        -3.76403570412760   -5.03472284879975    3.74259501618784
S        -5.31390659517720   -6.75634832680888    5.72923558738756
S        -6.40534174583056   -4.00022910737823    7.01445721593207
O         1.11757203996242   -0.55687979837389    1.72259048915645
O         2.45413885761611    0.22774869969419    3.44371918909009
O         0.73962467278569    1.55869017705222    2.60389325927393
O         2.63775722822022    1.15625915048860    1.31279644685396
N        -0.55028073835411   -2.09091044361751    0.20540769852882
N        -1.64183977519174    0.39066113206313    1.27906668013663
C        -3.77099531916098   -7.71639304470879    5.49346454928916
H        -3.50811365193207   -7.66415063816417    4.43710759636886
H        -4.05913368988354   -8.73703261776511    5.74170689363353
C        -2.64815517818377   -7.22766836167692    6.38478580392750
H        -2.95217048584382   -7.25688363274798    7.42836062640412
H        -1.77565132982700   -7.86436135283684    6.25686238880613
H        -2.36752404755509   -6.20740264000754    6.13233682692888
C        -6.81569214447368   -2.16805665046301    9.01139161524460
H        -6.55634995741818   -2.93869234946738    9.73312876024249
H        -6.59516508143032   -1.19470102279538    9.44321890837205
H        -7.88242283202106   -2.22754495583285    8.81151096446848
C        -2.98309558008943   -2.57844530653643    2.82170951660909
C        -1.95591950746958   -0.81173391890526    1.71810762962778
C        -3.74406535590028   -3.29272861985928    3.69896114929987
C        -2.06882724877397   -3.11509423545881    1.81919220501301
C        -1.74244885118554   -4.38306221428721    1.35996652830775
H        -2.17484149777816   -5.28323291562210    1.76978636627716
C        -2.91519406433166   -1.12598678761014    2.70628542564393
C        -3.57910301717933   -0.05723606023483    3.29043660770663
H        -4.32605231609813   -0.18242904965319    4.05953912495753
C        -0.27761125337673   -3.30780574617876   -0.24271843961119
H         0.37408744791208   -3.37438199705614   -1.09834259429282
C        -3.26284950774263    1.21188361109710    2.82293584430335
H        -3.76801283373894    2.07288033368252    3.23223357602498
C        -1.42829757874448   -2.02869021224338    1.18558227383917
C        -4.81663885690510   -5.18480627566384    5.14852697332190
C        -5.28327394597661   -4.03492180234009    5.67695780782172
C        -0.84274756708227   -4.45587365217365    0.30540034621176
H        -0.57973062270947   -5.41761131122894   -0.10714033338985
C        -6.02450930307236   -2.34984370411700    7.73228141474264
H        -6.29733164707356   -1.60033199633348    6.98899223538187
H        -4.95164524276062   -2.31324117431321    7.91913386950940
C        -2.31171552552624    1.39673641112887    1.82534824252614
H        -2.10089465193405    2.38376642774809    1.44923552931968

