27
CSD_code = TANPII | q = 0 | S = 0 | Stoichiometry = C3H8CoN11O4 | MND = 6
Co        1.33767351054216    0.26803680122147    6.26408094735923
O         1.57318940411632   -1.18445642420854    8.51595252939338
O        -1.20482231534835    0.09527954865488    6.94728482741616
O         0.89892090536397    2.54541417420915    4.81146252091857
O         0.44607679478145   -1.12420479457801    5.21631094849449
N         2.07995801330976   -0.94713212356864    7.43078747870826
N        -0.15402679741476    0.65213050253117    7.20419635722632
N         0.63648895487813    1.35692498465558    4.93261614721050
N         3.01232664335525   -0.15356933050183    5.25636124109674
H         3.41193191344236    0.14011326349243    4.37226384721271
N         2.06385406364293    1.66238472807360    7.34281664408982
H         2.97202607872037    2.11206775304201    7.37233626920209
N         3.14523730455254   -1.55564806588911    7.06458839115420
N        -0.08081873338782    1.56554941738654    8.09308489137465
N        -0.13068536164411    0.77030011009764    4.07500898386832
N         4.73846218980135   -1.74005862438494    5.42388124764197
H         5.09316656773651   -1.56983046334116    4.49974720891552
H         5.06898134927425   -2.53597135827107    5.93952295146678
N         1.34467811241420    3.09586712587542    9.06294958832867
H         2.19156654850275    3.63516673257837    9.07256765540926
H         0.54799204728264    3.41346748625800    9.58496601757269
N        -1.06298162742475   -1.25518702850253    3.53820012375956
H        -1.26655059855667   -2.21099595252067    3.77674166865430
H        -1.67841926920688   -0.74728923793481    2.92780999238704
C         3.61911939980279   -1.12837803785485    5.85888185485448
C         1.15733337624363    2.12148027473176    8.15785945885683
C        -0.24067847477971   -0.56126146125170    4.33642020742748

