71
CSD_code = TANVEJ | q = 0 | S = 0 | Stoichiometry = C28H32N2NiP4S4 | MND = 4
Ni        0.00000219338671    0.00009291951693    0.00005308648707
S        -2.10733152249547    0.76909190218381   -0.53539227911680
P        -2.83286400129774   -0.48608266420613   -1.92707028481301
N        -2.36520656858021   -2.03621712692263   -1.80137636650495
S        -0.43856207043572    0.78961772419383    2.09140073315204
P        -0.77929247007269   -2.28379088499438   -1.52050947571710
C        -2.50270039373608    0.14639848560954   -3.60492484118170
C        -1.77111018472423    1.29971845536547   -3.83618981372963
C        -1.53283569337488    1.70573603641487   -5.13720736515746
C        -2.02586739855727    0.96265992863430   -6.19656944493323
C        -2.75794689558634   -0.19154346217755   -5.96166840837339
C        -2.99697360019580   -0.60286305496695   -4.66472997872980
C        -4.63005254848518   -0.49608288750919   -1.78908310043007
C        -5.29776203242836   -1.63648454814086   -1.37182420207366
C        -6.67593947095108   -1.61325857872556   -1.25345882488610
C        -7.37690818787771   -0.45394292997016   -1.54334956817261
C        -6.70448816597657    0.68753843818831   -1.95306012595827
C        -5.32828472879420    0.66950970654304   -2.07683032368226
C        -0.58164645277899   -2.72836291541824    0.25784141769348
C        -0.33095469349778   -3.78082500157499   -2.44781217363354
H        -1.38574454723136    1.86311161813368   -2.99749318046232
H        -0.95839616456960    2.60092129602768   -5.32486082654904
H        -1.83662353907646    1.28064151665929   -7.21148210480241
H        -3.13859632048548   -0.76976617914141   -6.79110828962182
H        -3.55705895603590   -1.50439283816215   -4.45419063731441
H        -4.72572130431541   -2.52613966955816   -1.15381254081135
H        -7.20500952603748   -2.49905464882755   -0.93326206956736
H        -8.45285650331625   -0.43781184803614   -1.44830026401745
H        -7.25545534104508    1.58982540831453   -2.17465283376259
H        -4.78392577651563    1.54973153251576   -2.39276487604161
H        -0.77938488616019   -1.82278159029743    0.88362348888691
H        -1.31863612620783   -3.49354652958836    0.49990402211479
H         0.43284021130013   -3.08784999517103    0.43765120302408
H        -0.37762937667400   -3.54851528592479   -3.51054776434087
H         0.67872748858473   -4.08721116527219   -2.18375232468140
H        -1.04583744337215   -4.56610164807507   -2.21307619476780
S         0.43853480794488   -0.78932526231144   -2.09129032850280
S         2.10726108192369   -0.76925495559055    0.53554250605012
P         2.83288252532943    0.48609151153828    1.92703545847339
N         2.36533071504035    2.03624993869933    1.80117790695176
P         0.77938731811928    2.28391128082982    1.52049991497100
C         0.58149556339981    2.72840805892162   -0.25784756961272
H         0.77948354287120    1.82285292088756   -0.88359528105036
H         1.31821889247012    3.49382263378566   -0.49998172761189
H        -0.43312868109428    3.08755559422603   -0.43759559816704
C         0.33117206253561    3.78095656490450    2.44785935213770
H         0.37788866325851    3.54866259504100    3.51060080592748
H        -0.67851430834871    4.08739566757153    2.18386260572874
H         1.04607363414110    4.56620072758724    2.21308415624039
C         2.50268461416726   -0.14617909278895    3.60497513023987
C         1.77118871476029   -1.29954059739431    3.83633171958060
C         1.53290900553626   -1.70547187738595    5.13737231727749
C         2.02582731155163   -0.96225689556984    6.19668465136623
C         2.75779522634467    0.19199235100102    5.96170060837053
C         2.99685589750456    0.60321540040388    4.66473727571550
H         3.55699232815963    1.50470909169486    4.45417100556943
H         3.13842349764034    0.77029726228629    6.79110176772132
H         1.83649457327017   -1.28012180405513    7.21162553978464
H         0.95843357964068   -2.60062662465298    5.32507333050857
H         1.38587433578178   -1.86302358527001    2.99767123048583
C         4.63007249633277    0.49591216526536    1.78902990750386
C         5.29790511538677    1.63609272507135    1.37136206729169
C         6.67607808019678    1.61265791482449    1.25296573061134
C         7.37691269399121    0.45335137203279    1.54322559107386
C         6.70435983000316   -0.68792549467431    1.95329473381243
C         5.32816322261617   -0.66968372354235    2.07710177069991
H         4.78370292463357   -1.54972952137120    2.39335278765551
H         7.25522085083873   -1.59020718571276    2.17516066684381
H         8.45285307537136    0.43704798419797    1.44814006332598
H         7.20524556137958    2.49826109321379    0.93239866291386
H         4.72595424489314    2.52573225069715    1.15305777256350

