71
CSD_code = TAPCAP | q = 0 | S = 0 | Stoichiometry = C30H30N4O6Zn | MND = 4
Zn        1.63250286306822    7.68241744012420   -0.01798737023401
O         0.65923879311213    8.42625473754506    1.32655971964839
O         0.99414181591393    8.23025527081393    7.49060147824963
O         1.90167182392827    6.33998668385689    7.00659306613077
O         0.65827348207234    6.93867532841653   -1.36175164489726
O         0.99785423918276    7.12419094030918   -7.52572821720465
O         1.90928981869879    9.01320347467581   -7.04410767326721
N         2.60026741133486    6.17482912950444    1.03544812309274
H         3.42315079369047    6.50138935727188    1.54527952825145
N         1.34446471491197    7.37902691014283    6.69221832934098
N         2.60316055623211    9.18751171647215   -1.07258608262531
H         3.42607106197124    8.85878654817643   -1.58106512106648
N         1.34916377679414    7.97611292209927   -6.72851241765405
C         0.75658389172989    8.11417941090547    2.58199155025047
C         0.31515932479788    9.03436863962457    3.56095900307530
H        -0.15526394871926    9.94184275074686    3.21653669557655
C         0.48712181268748    8.79700856356384    4.89811154220711
H         0.16640896711325    9.50879243230360    5.64354545224016
C         1.10457375014188    7.61570785266698    5.31363275082007
C         1.47863518657258    6.65711605821678    4.37432534985833
H         1.90613734796105    5.73145777738167    4.73277496968004
C         1.29562413072939    6.87758214356656    3.02892593721295
C         1.59070166245114    5.78232895900459    2.04177022742747
H         1.91667415372411    4.89081264201108    2.58974232134089
H         0.67061582737103    5.53993728086257    1.49509182174326
C         3.01694706096868    5.03301932172617    0.18701064123997
H         2.10479801004747    4.48302760597408   -0.06621192924305
C         3.99290916887862    4.10149879788179    0.90721816484170
H         3.53883653493336    3.65122573886717    1.78619272783887
H         4.88645367987484    4.64061672847870    1.21510300755236
H         4.29353294826489    3.30150162287797    0.23566172407150
C         3.62043258372674    5.55415392754839   -1.09502513224647
C         4.75158579585088    6.36250788109069   -1.06643826731743
H         5.23113383142883    6.57746735140059   -0.12380490326332
C         5.28322044249511    6.87181762879246   -2.23880132571004
H         6.16140587978133    7.50154392714961   -2.20368089670372
C         4.70538834161846    6.55847911555059   -3.45814156212701
H         5.11758837993376    6.95692437327220   -4.37256022482138
C         3.60921026188167    5.71496283584734   -3.49857138385452
H         3.16975774884760    5.44545599291077   -4.44614391103415
C         3.07023659979279    5.21741793008610   -2.32470161263713
H         2.21482566621262    4.56143576474203   -2.36437967364415
C         0.75723081678899    7.24853102928505   -2.61758745774337
C         0.31467487366281    6.32765047594380   -3.59536802030142
H        -0.15771249573111    5.42167219184547   -3.24972914703179
C         0.48791358808028    6.56260921773570   -4.93276381977748
H         0.16616343364071    5.85038411806973   -5.67732728416318
C         1.10801490726952    7.74202202241994   -5.34968943501072
C         1.48338876662394    8.70133216932659   -4.41164449343125
H         1.91294705183996    9.62558155017670   -4.77127450818625
C         1.29894156714846    8.48340857545680   -3.06602445895540
C         1.59510390648686    9.57985512990667   -2.08048636317737
H         1.92302540856141   10.46976130071949   -2.62985977794459
H         0.67496432799971    9.82484321566042   -1.53504337206999
C         3.02091150141692   10.32975827651797   -0.22526712119382
H         2.10873369712373   10.87855242056248    0.03050153803340
C         3.99379437300876   11.26293328337702   -0.94750929289299
H         3.53585963043821   11.71583479890164   -1.82309591546294
H         4.88583539426188   10.72466573346545   -1.26110146693833
H         4.29755335067403   12.06100828288616   -0.27507438985163
C         3.62789125217528    9.80823947105246    1.05503140472159
C         4.76454650130286    9.00766114275572    1.02438753455878
H         5.24683747881389    8.79979729804691    0.08154359513479
C         5.29829486636483    8.49710067761697    2.19521406422459
H         6.18054536222497    7.87321529166943    2.15837098093798
C         4.71695860542342    8.80138010167144    3.41519940108645
H         5.13073087300952    8.40175891329177    4.32840231965597
C         3.61533702223670    9.63765802747609    3.45797437172188
H         3.17318961379181    9.90057189359056    4.40615060895865
C         3.07448387914226   10.13659484514305    2.28555069280139
H         2.21515425421157   10.78728703096673    2.32702503016117

