52
CSD_code = TAPDOE | q = 0 | S = 0 | Stoichiometry = C21H21CoN6O3 | MND = 6
Co       15.41501950228152   -0.00002733487505    3.80497009965499
N        17.01674353500323    0.62047692441485    2.81668498382924
N        16.64030291317927   -0.96397711366068    4.79554894397538
C        17.13515823553231    1.44593392478833    1.78347762213546
C        18.35079107124591    1.92370582167323    1.33715769108700
C        19.50591386864372    1.53486867912267    2.01360919889462
C        19.39763102996988    0.68221238186607    3.08613321365715
C        18.12853118739785    0.22669359241116    3.48036504743505
C        17.90110976326452   -0.69099976702411    4.54741682073727
C        19.00495833561584   -1.33866376742592    5.32554358457685
O        16.27712630708402   -1.84414335348536    5.60091341444673
H        16.21575426851461    1.73190837862877    1.28865749188709
H        18.39637017729889    2.58842130497685    0.48993629914524
H        20.47109145200713    1.90256488705897    1.69855151665844
H        20.26754836249359    0.36731944030348    3.63791554418755
H        19.55411575504161   -0.59191905326043    5.89686309778227
H        18.55891307882747   -2.05013955559498    6.01692665572222
H        19.69750286942230   -1.86256450552921    4.66758874642993
N        14.07682912321796    1.07686908216108    2.81666583935791
N        15.15145886897943   -1.69740706085107    2.81670368393758
N        15.63719007566237    1.54306357939246    4.79557925973785
N        13.96757611921688   -0.57914587478710    4.79557282065224
C        13.30279387080447    0.76671776451050    1.78342544261721
C        15.80700174491244   -2.21266349005632    1.78341185858392
C        12.28129448092602    1.58065875842410    1.33703132444436
C        15.61285158417376   -3.50429561758903    1.33705155773975
C        12.04050313090603    2.77545865306623    2.01346108695661
C        14.69855973632647   -4.31023442691289    2.01354262726800
C        12.83300517365041    3.10796508596087    3.08604508738396
C        14.01435673394642   -3.79013019388809    3.08611676744602
C        13.86198878743523    2.23660989316897    3.48033022457969
C        14.25453692441293   -2.46333595806660    3.48040834422562
C        14.77040353935894    2.49847591208248    4.54742594861049
C        13.57357070553768   -1.80753204162802    4.54750199419068
C        12.46077930407602   -2.43961816301562    5.32569459815660
C        14.77934397154950    3.77823917979517    5.32559940144269
O        13.38691623478503    0.17547684792666    5.60088778291476
O        16.58097621617802    1.66859290800033    5.60100623045376
H        16.51452018550753   -1.55951195410389    1.28871779620106
H        13.51485208206434   -0.17248799430955    1.28859073990710
H        16.16568298238331   -3.87613482969340    0.48980976888098
H        11.68289357520265    1.28781116046919    0.48976263860765
H        14.53421737634475   -5.32987967332493    1.69835874619199
H        11.23951007077018    3.42750430850060    1.69837532295735
H        13.30662455352410   -4.38600998352606    3.63785451900638
H        12.67074497664340    4.01877698288495    3.63783422915057
H        12.83292926636750   -3.28856408233632    5.89701321427115
H        13.85806382834266    3.88040535225760    5.89692511257391
H        12.06770809715111   -1.69756953857295    6.01708728545284
H        15.61852585651807    3.74768073752651    6.01698028338423
H        11.66074696506833   -2.77743131815979    4.66779330082727
H        14.88676214523046    4.63997511030528    4.66767518964571

