79
CSD_code = TAPJUQ | q = 0 | S = 0 | Stoichiometry = C24H46N4NiO2Si2 | MND = 6
Ni        2.11011080385852    2.82985915102631    3.46901403397571
Si       -1.17669187866897    2.37062175900228    2.50256932276175
C        -1.83912389101855    2.19156915530446    4.28563154870914
H        -2.32699667209855    3.09941038062230    4.62718436404068
H        -1.03863295068250    1.96431863061941    4.97768833452308
H        -2.57090880530542    1.39157896905569    4.34135484472331
C        -1.01766985974649    0.64690660270687    1.68608431333853
H        -0.78731791391194    0.73488453804184    0.62782634636173
H        -1.93531802682931    0.07318234924867    1.77763460230046
H        -0.21964357062913    0.07597528023892    2.15151179575041
C        -2.50336405758551    3.34573681556218    1.52860850639062
H        -2.51723663033734    4.39573480504433    1.80100598918736
H        -3.48628671025010    2.93943295274649    1.74439894006804
H        -2.34949748244947    3.28433343236130    0.45693424211946
N         0.35010922798518    3.17757300516442    2.60440287098289
C         1.06951178092833    3.71665903463334    1.64442686125681
C         0.52724642349654    3.88182147116414    0.27819793011077
C         0.76734215346875    2.89071390293978   -0.66536653570630
H         1.37408100788111    2.04170403751342   -0.38823935191680
C         0.23792370011436    3.00267934792606   -1.93835730114714
H         0.42438359601002    2.23056075693869   -2.67122706091292
C        -0.52922919493420    4.10562720941985   -2.27669946563992
H        -0.94047766036144    4.19374547268610   -3.27197579208232
C        -0.76794831219573    5.09614121496782   -1.33857591547982
H        -1.36512926500645    5.95685981102825   -1.60329421527793
C        -0.24538648821118    4.98385502375035   -0.06250644081429
H        -0.43083619634951    5.75184388173227    0.67409959231349
N         2.29935315250782    4.05678312087200    1.99402272697722
Si        3.49911703350719    4.64450344599565    0.88531274415755
C         4.66808373898790    5.89963096351893    1.74882562674948
H         4.12408181320464    6.76287408235425    2.12033101440513
H         5.37937299734433    6.26450523079571    1.01413614262411
H         5.24701384498234    5.49345085866480    2.57001484503038
C         2.82991314901219    5.70000612732700   -0.56535300572092
H         2.11271815615114    6.44220986262417   -0.23028029903551
H         2.35010998295779    5.10393607938495   -1.33331966551484
H         3.65413957107983    6.23175997505275   -1.03195568573336
C         4.49274770452808    3.18404727545158    0.14455764581633
H         4.25189995042588    2.27006873345612    0.67816820508599
H         5.56628481772141    3.33750185732295    0.20384523299167
H         4.24260139053242    3.03211379830996   -0.90176716182482
O         2.82835339863500    1.10464732822616    2.23542286207997
C         2.54568514160688   -0.07530710872975    2.52182989624330
C         2.96732032821717   -1.17010684108358    1.55443752255455
H         3.54013011785708   -0.73965005639347    0.73681078430333
H         2.08502907465422   -1.66346079793123    1.15156206543122
H         3.57021099803138   -1.91658554984898    2.06694573349053
C         1.86515472961977   -0.49713759636618    3.67914405276630
H         1.69032011725520   -1.55484356572425    3.80454985132229
C         1.37608533332464    0.36300185919480    4.65712914033491
C         0.64750316692624   -0.28907423799767    5.82346738912244
H         0.46979530168661    0.44340596401244    6.60675420216430
H         1.22893971108442   -1.11589940431638    6.22360559886959
H        -0.31010020417721   -0.67423785110608    5.47924238362146
O         1.46366197393484    1.62138782427856    4.70479077309503
N         4.11273588004733    2.83016245500409    4.57147457065636
C         4.21204436950652    1.77481767086938    5.57885873441770
H         4.13673122938430    0.80292162491479    5.09570071449249
H         3.40536627612394    1.85195118072178    6.30149911249768
H         5.17515920121812    1.83298863737184    6.10870164330598
C         5.20672373168849    2.62428435679433    3.62437280344676
H         5.09350156062763    1.65062296396193    3.15380909800891
H         6.18176433172414    2.66317202843422    4.13439401225439
H         5.17451012857928    3.37845188668934    2.84622370304470
C         4.26307648780313    4.14024525364073    5.21282046968051
H         5.12818400599986    4.13402968750205    5.89835042281538
H         4.44673695373739    4.87596487692456    4.43050401646959
C         3.01270303691572    4.55743019858184    5.98863025695215
H         3.21212739433291    5.51884105056510    6.49296597205328
H         2.80375001081043    3.81579838673547    6.76104105763097
N         1.85096827667052    4.64890320321449    5.10924449878893
C         0.61798379468620    4.46142330812843    5.86234504804096
H         0.62155328744170    3.48027632466103    6.33004023683147
H        -0.22244755247828    4.50416467513112    5.17420234859875
H         0.49294217709760    5.23414111117635    6.63794863113035
C         1.80445301017508    5.94828792620093    4.45343612432535
H         2.70770924493033    6.10897030574184    3.87301775515028
H         1.69605710644126    6.76382755121767    5.18791622989840
H         0.95812643775648    5.97266296702279    3.77093955816279

