82
CSD_code = TAPKUR | q = 0 | S = 0 | Stoichiometry = C25H48N4NiO2Si2 | MND = 6
Ni        2.59087153630627    2.83747218679041    3.39544289410971
Si        0.96049187178963    5.82755909000070    2.83000942770062
Si        5.27921082496448    2.92562075965985    1.23133335195007
O         4.07056056465783    3.77038731970050    4.80175047360929
O         1.33308899851907    2.90847701252091    4.74917773600394
N         1.93163593709084    4.44750215401644    2.45058199276855
N         3.68521640540050    3.22199241244648    1.85063706812933
N         3.22776492249096    0.78122669873483    4.13031850633689
N         1.13625375828384    1.30549548318048    2.11178492776188
C         3.57649337401948    5.55736329766324    1.03952201085623
C         3.18308460124201    5.81081659213136   -0.26640522353680
H         2.51467935224064    5.12364562949806   -0.76458553042817
C         3.64632096406225    6.93415306402065   -0.92757373722028
H         3.33639536227924    7.12105105564753   -1.94631390545377
C         4.50294563249564    7.82722577709761   -0.29868822042528
C         4.89107421112160    7.56716669564129    1.01176192614009
H         5.55947901477349    8.25483838815669    1.51144192579303
C         4.43581456381850    6.44475877353635    1.67580013268564
H         4.74470612818364    6.23876576975488    2.68971692900302
C         5.00231296377261    9.05272872790388   -1.00357545979878
H         4.67630462214640    9.06590756319005   -2.04056138309909
H         6.09057806325915    9.09053454604281   -0.97912060144148
H         4.62776450659151    9.95046078973884   -0.51200896898856
C         0.65346479115070    6.99093594411983    1.34258378966795
H         1.51943969304265    7.60440807677631    1.11981448338154
H        -0.17475393127689    7.65654614578647    1.56365756656569
H         0.39964825121707    6.44058574398990    0.44284876610402
C         1.74039648321871    6.87609497402236    4.22858503165832
H         2.63674553329523    7.38460151978785    3.88447797642884
H         2.01965284258663    6.24575472975960    5.06767931805132
H         1.05179012884143    7.63234315189237    4.59407414946974
C        -0.75405123803832    5.18567423395298    3.37721022166302
H        -1.39342527028156    4.96679580034071    2.52739967624070
H        -1.26382454329030    5.93016173526212    3.98093652878830
H        -0.66152919688625    4.28169188426436    3.96509302962149
C         3.06243969756075    4.38667292216782    1.78149055712646
C         6.58252895840826    3.25592754137449    2.59576621312815
H         7.17339265794828    4.13844625509411    2.36701520190828
H         7.27220403848180    2.42672509468078    2.72370258254507
H         6.08230311593005    3.42866098559937    3.54344631870195
C         5.42763544604100    1.13219392680132    0.55964791845405
H         4.72181459136284    0.94516780441223   -0.24415694332257
H         5.29670405436154    0.35515792635335    1.30382544187461
H         6.42272150280795    1.00401248592249    0.14464845092731
C         5.78056185945411    3.94103720758634   -0.31251170293333
H         5.01412224325109    3.91870958325380   -1.08022375497377
H         6.68388800580988    3.51714177965771   -0.74188350644335
H         5.98422468978939    4.98095241791254   -0.08389868275513
C         4.77762355412634    4.93876785728400    6.74949539408441
H         5.73378170073203    4.92892818900264    6.23236462847769
H         4.88694781017496    4.46922840291584    7.72463109363130
H         4.46432057010010    5.96960948101611    6.90161230858389
C         3.73548568503777    4.20312007888292    5.92144510256635
C         2.46200245795285    4.06696621006050    6.50568489220719
H         2.31050596055880    4.48710925537119    7.48836396187727
C         1.37745678638956    3.45426947592617    5.88671332133290
C         0.07652508151821    3.43110698046558    6.67685256355200
H        -0.63762614315966    2.76663223538734    6.19736116016002
H        -0.34328989098560    4.43440855835217    6.70599467864474
H         0.25339278453664    3.10053559314990    7.69704055540332
C         4.68078845692418    0.73088828555184    4.28087727824846
H         4.98811780799706    1.45681815549545    5.02976379559794
H         5.16245680847281    0.99044007284466    3.34500893550839
H         5.00900652321487   -0.27106191606470    4.59829027733419
C         2.64907012556373    0.43203028801086    5.42711647190850
H         2.99420032271594    1.13685528772914    6.18064518223353
H         2.95171960676173   -0.58305030140881    5.72674880060115
H         1.56500747902636    0.48312176043175    5.39403571687583
C         2.80957372399758   -0.19899638802107    3.12294454560304
H         2.94600085553377   -1.22468106007710    3.50755213129401
H         3.44545197456953   -0.06982149146990    2.24772922295481
C         1.35248431541802   -0.01459151947448    2.69625251964276
H         1.08624533403668   -0.81735551571588    1.98683564894673
H         0.70552874961734   -0.11651365716761    3.56878913660485
C        -0.25570986560600    1.71095734812706    2.25251164426062
H        -0.51794425781410    1.75469063956369    3.30640828732585
H        -0.93724259085187    1.01596444155391    1.73575403462480
H        -0.37416561382864    2.70704927940450    1.83370906948986
C         1.48211690683574    1.30392969454795    0.69749413757969
H         1.35735584607049    2.30813693968300    0.29901426173185
H         0.83989121327503    0.61080295896796    0.12853455693769
H         2.52087733692214    1.01735472176376    0.56484977980262

