81
CSD_code = TAPKEB | q = 0 | S = 0 | Stoichiometry = C26H46N4NiSi4 | MND = 4
Ni        5.85103986273079    3.15009347631068   16.30772079717210
Si        4.21329815231600    1.90973433362738   18.91589428080541
C         3.76367853568146    0.65409716655286   17.54149428131610
H         4.00212448241985    1.09464814378849   16.57158856024433
H         2.71270070134613    0.38473810085878   17.54353575471706
H         4.33575184955486   -0.26445547426405   17.63719814231112
C         2.70267759232579    2.91236409878777   19.51686697804892
H         2.29521456953586    3.53161229725707   18.72614664128838
H         2.95608366632179    3.56039689688718   20.35067694401766
H         1.91790586383595    2.24266981913610   19.85447592866048
C         4.93319161812405    0.94180413925104   20.40007352532005
H         5.05144483188732    1.56967722369481   21.27666956714143
H         5.90707179687073    0.52283095823706   20.16620453898944
H         4.27687968975386    0.12056771199941   20.67068610381912
N         5.36698557728564    2.94778869907957   18.14313843011729
C         6.62265507651226    3.20166000222805   18.46982029704050
C         7.11063393437205    3.23522712992399   19.85714206787755
C         6.39408243591419    3.91915890375534   20.83256363893265
H         5.48331081272820    4.42791880912120   20.55424154443918
C         6.85666180504374    3.95693072106669   22.13498576628911
H         6.30454312340471    4.49953015198407   22.88866391981619
C         8.02586894503063    3.29653515749348   22.47592583954730
H         8.38198506294705    3.32008759794612   23.49542494722526
C         8.73771733723240    2.60522491927368   21.50907827156026
H         9.64654291503179    2.08601134722485   21.77704763642731
C         8.28811319207666    2.58160257267889   20.20172913935764
H         8.83424426578684    2.04756601901354   19.43868311258437
N         7.38768073599887    3.42120925432431   17.41538265525058
Si        8.78588024185617    4.43300727702806   17.24880605798266
C         9.16655089858121    5.47361892600125   18.80784694317754
H         9.62446535394350    4.88100733280847   19.59257023036604
H         8.26438998265548    5.91621866203682   19.21901606890267
H         9.84978093139539    6.28171472599091   18.56572641239492
C        10.32069508817037    3.37574581761031   16.82723880282715
H        10.11146754037020    2.67119515589191   16.03039966149155
H        10.66897986039857    2.81224019938011   17.68773244282901
H        11.13959123811513    4.01096841187488   16.50440108392275
C         8.30535313031720    5.63021000115249   15.83471225075771
H         9.14097702794909    5.87312490671890   15.18661474308919
H         7.91143783210198    6.56548288983880   16.22265663207435
H         7.52560551289504    5.16734564540021   15.22880465066642
Si        7.56892266070665    2.00879440968519   13.71364840670213
C         8.07517547379267    0.78575769743547   15.09835408423678
H         7.79309060795180    1.21230689098043   16.06334612787645
H         9.14106083460015    0.58343219193406   15.11471761013516
H         7.56405527912597   -0.16737627104783   14.99582677518017
C         9.02367219500429    3.09825072818779   13.12699633515536
H         9.38987948403206    3.73657381109922   13.92251876245144
H         8.73973843707694    3.73385246548474   12.29360002658269
H         9.84725499321443    2.47507066546069   12.79292601906418
C         6.92688653357043    0.99585210757166   12.22394056245435
H         6.78031605986948    1.61400097728455   11.34470341033000
H         5.97806857298971    0.51771135222901   12.44722258698971
H         7.63598447174799    0.21652543509599   11.96262629133619
N         6.34796996747977    2.97862394462379   14.47191810644119
C         5.07572029948453    3.13281476671745   14.14664655085413
C         4.58414874132320    3.11855736072267   12.76055931338391
C         5.25320352667546    3.83697159507096   11.77613962045378
H         6.12998787161184    4.40587552789774   12.04702835076862
C         4.78676281977468    3.83091854778889   10.47461211484582
H         5.30171281295534    4.39936093269133    9.71371815183751
C         3.66200585669217    3.09275337839595   10.14364048205197
H         3.30302485754927    3.08267380740305    9.12493920017530
C         2.99829803681586    2.36692843139396   11.11941298732593
H         2.12401818245682    1.78786188622000   10.85938096075436
C         3.45098177483979    2.38619410118014   12.42575016433586
H         2.94203109266871    1.82595322517484   13.19567966720298
N         4.29830398227312    3.30162340554913   15.20156274655512
Si        2.83485805101645    4.21758883877005   15.36457308253708
C         2.38318826661461    5.21594027710720   13.79682074958986
H         3.25386773975287    5.71119805105442   13.37796397149444
H         1.65026021078528    5.98095162692261   14.03353586582138
H         1.96186949145727    4.58733784937129   13.01970152027829
C         1.37371944630451    3.06676434528641   15.80196013194796
H         1.08088542482417    2.44931073337832   14.95800378103235
H         0.50648836668699    3.65258781699664   16.09008163135712
H         1.61963482431124    2.40785302673945   16.62679110046474
C         3.23749998271909    5.45770110379520   16.76611969935178
H         3.56319791518894    6.41469336671959   16.36869239670872
H         4.05037201150490    5.05515076066981   17.37156279997813
H         2.38991977171349    5.64714870196482   17.41649256315999

