49
CSD_code = TAPKIF | q = 0 | S = 0 | Stoichiometry = C12H32N4Ni | MND = 4
Ni        2.14626900634736    3.58094541156269    0.00006269410619
N         3.53158314512837    1.74065059458605    0.47830005749642
N         0.63998249134721    1.79907418217833    0.32935319967702
C         2.75694813298352    0.51529310400750    0.60063812992976
H         3.30041421441735   -0.34041756743204    0.15251431271509
H         2.62253562927895    0.29616967179202    1.66252779048063
C         1.39384317751807    0.61614824058879   -0.07872004910916
H         0.82447708560575   -0.30531012242268    0.15161349888665
H         1.53013462412709    0.66099916200383   -1.16139914914874
C         3.83128714440734    2.01303550441263   -0.93237583940216
H         4.72868641975895    2.62388835789453   -1.00080366722397
H         2.97733020387116    2.58038025378371   -1.36421486203616
H         4.00392713546365    1.08948401846994   -1.50669015508879
C         4.74660381136546    1.60149626864837    1.25965886528823
H         4.49349664041051    1.43178444246442    2.30646979753439
H         5.33212518136216    2.51558424344320    1.20125550554376
H         5.36860623497982    0.75859320989946    0.91378486125553
C         0.29220828972417    1.69501400016516    1.74267491054598
H        -0.40650098104481    2.48392864011669    2.01300941585779
H         1.18446476913422    1.81333570856983    2.35211628594290
H        -0.17895909786268    0.72477651113906    1.97102122323333
C        -0.58338165236892    1.83603433542618   -0.45916125193246
H        -1.21526219053611    2.65800307773172   -0.13020188426456
H        -1.15992258162334    0.90103630646948   -0.35828449818343
H        -0.34156348567050    1.98574680888928   -1.51016876345935
N         0.76084069144176    5.42181643205337   -0.47718124017717
N         3.65254331225009    5.36261843118451   -0.33028333830443
C         1.53546635919985    6.64712188906695   -0.59982224111744
H         0.99247058833913    7.50278003211116   -0.15100454406194
H         1.66894632353687    6.86649260198686   -1.66178592200870
C         2.89919197252708    6.54571571024918    0.07823682581772
H         3.46855786312829    7.46695710382713   -0.15290058660839
H         2.76401686795242    6.50117445392484    1.16107755674317
C         0.46263490126342    5.14868397299723    0.93362662131204
H        -0.43460702203229    4.53758490438529    1.00247384051082
H         1.31718564514818    4.58115996247899    1.36431722065633
H         0.29034116668079    6.07192413923437    1.50855836379387
C        -0.45506759481416    5.56169293813737   -1.25710498814912
H        -0.20322623784251    5.73241579831173   -2.30381748209777
H        -1.04051866671065    4.64765558613199   -1.19908607058075
H        -1.07666980338020    6.40400724491756   -0.90990462509465
C         3.99842933166056    5.46593250477130   -1.74413778148392
H         4.69671462286892    4.67682199779461   -2.01497069469782
H         3.10532243113401    5.34731681062138   -2.35226742796982
H         4.46933570642466    6.43600988752951   -1.97365646987388
C         4.87692216863310    5.32593333281219    0.45664996502363
H         5.50844686392364    4.50381636025455    0.12733938340752
H         5.45328549608966    6.26091692160144    0.35463128584374
H         4.63640366445349    5.17677661922835    1.50803192047080

