64
CSD_code = TAPMIG | q = 0 | S = 0 | Stoichiometry = C31H28O3PRh | MND = 4
Rh        1.12966989343002    1.96608387115952    2.25305323740708
P         0.60583997442821    4.08147255909971    2.80606645606389
O        -0.79606249450420    1.55161589257926    2.22620420430841
O         1.42161059049322   -0.00124732677315    1.80913432612560
C         0.97873506567552    5.45604427040043    1.66848174292644
C         1.38976424260913    4.58467272202696    4.37538171736884
C        -1.16318763259698    4.37704304359303    3.12771263912163
O         4.03338670868797    2.59567174827082    2.43125211044504
C         2.91459397292844    2.34057775209251    2.33697142689608
C         1.15944782589771   -2.27827094756297    1.33491372329276
H         0.74851158138447   -3.02646137566922    2.00845254686745
H         2.23660471384564   -2.22005892035237    1.47279388932332
H         0.95719920703881   -2.57826900731706    0.30814597341460
C         0.56723774834973   -0.91108654116593    1.61524576107306
C        -0.83244385824325   -0.75946035067587    1.65995829364152
C        -1.41643110053958    0.46918598907069    2.00474606137752
C        -2.92062155938039    0.56288954498023    2.15293431955549
H        -3.29207752912222   -0.21520875541770    2.81564240642410
H        -3.40617446985086    0.45621208200233    1.18417671802451
H        -3.16980389678554    1.54015559527539    2.56164708357734
C        -1.72892330219638   -1.94706125599811    1.40868277580353
H        -1.22064607636105   -2.66691460169615    0.76373360262199
H        -2.62163844739451   -1.62869594397388    0.86522266267374
C        -2.16249955381065   -2.66771645876848    2.66430667937627
C        -3.21250114258120   -3.57738410343215    2.59988867411482
H        -3.71311601479517   -3.74293970279735    1.65562718353783
C        -3.62139056293878   -4.26962508950618    3.72448972186363
H        -4.43921521624224   -4.97245857392104    3.65596283799439
C        -2.98507667726962   -4.06160212139654    4.93690521274127
H        -3.30314774133237   -4.60082764901247    5.81703595347344
C        -1.94058033659016   -3.15761585513160    5.01272117791769
H        -1.43898276360403   -2.98797601132662    5.95456016477064
C        -1.53207231719700   -2.46659423601174    3.88479018507788
H        -0.71850991443309   -1.75941803627697    3.95765583082535
C        -1.70006804155526    4.48754501768315    4.40357044661569
H        -1.04923859699146    4.46909131777313    5.26671307777333
C        -3.06863622521381    4.62233830315203    4.56715352006443
H        -3.48375046979380    4.71161660106814    5.56072141326497
C        -3.90540776526779    4.63671994254915    3.46416901801185
H        -4.97281782400337    4.73679067343712    3.59689832891097
C        -3.37372039459734    4.51442445831730    2.18896645682787
H        -4.02749478634830    4.51648785175930    1.32858446522605
C        -2.00928656516778    4.38092062053589    2.02141436755067
H        -1.58194995416173    4.27109908246766    1.03289954013052
C         0.36837809609970    6.70170478151592    1.78903358112983
H        -0.37199570945777    6.86548366583184    2.56074195540943
C         0.69683126926582    7.71998190153209    0.91267524356771
H         0.22323071497236    8.68629282388512    1.00963442714882
C         1.62865756595237    7.50253939244504   -0.09006166946934
H         1.88218431853654    8.30094142446548   -0.77180892698953
C         2.22555954167118    6.25968616710369   -0.22482434713743
H         2.94206086352111    6.08680403581055   -1.01418670135981
C         1.89937554227138    5.23864490456095    0.64997381682179
H         2.34358666294188    4.25470843298732    0.54978338095459
C         1.61024965386199    3.55159331048367    5.28451314754628
H         1.32919256809162    2.53852115359911    4.99684400951712
C         2.18432252357777    3.81080674879194    6.51393876021733
H         2.35131785582894    3.00691948662029    7.21565992258531
C         2.55513640918215    5.10645643137663    6.84020105779999
H         3.01041412447405    5.31291077543844    7.79754490023451
C         2.35259442745625    6.13407885258302    5.93452429253587
H         2.65243193036869    7.14105498459995    6.18592344205042
C         1.77016508693392    5.87882799574873    4.70422992837733
H         1.62447826057137    6.68417665556657    3.99927184465003

