82
CSD_code = TAPNAC | q = 0 | S = 0 | Stoichiometry = C37H40ClN3Pd | MND = 4
Pd        3.95598430489365    2.22750692604322   15.47078613725174
Cl        5.87924781376218    3.52428179735388   15.05793859948771
N         3.90864792753205    4.27720020626018   17.60802806034734
N         2.23786188332289    4.52911721344652   16.27350348038222
N         4.56235844188421    0.76021294207756   14.21189836650217
C         3.28548870732398    3.72232117716779   16.55295754343853
C         3.25772071853637    5.42228454711844   17.99334531254645
H         3.57172192946050    6.00652850383459   18.83370404121487
C         2.20645975849232    5.57965081091032   17.15792082277434
H         1.46296217844970    6.34787159566486   17.10813701531587
C         5.09296339699803    3.76976442839014   18.21085498459370
C         5.07053261467613    2.51160158418408   18.81665635006338
C         6.23843746571205    2.03218657094695   19.39585012724110
H         6.22755467580231    1.05529715256052   19.85824316874217
C         7.40947245388420    2.77073502083308   19.38494370621360
C         7.40042779199275    4.02037941832894   18.78051888014337
H         8.31269229296748    4.59850022623292   18.75350951426497
C         6.26139017945973    4.53875877766515   18.18712003475649
C         3.82660527346449    1.67217824825687   18.84726331264645
H         2.95034109105490    2.27550397731424   19.08277400921629
H         3.92026803742412    0.88575749738099   19.59206045595564
H         3.66354615053541    1.20262399710619   17.86343424336607
C         6.32009444792961    5.84970194639257   17.46804964289491
H         5.59888761985306    6.56857041046945   17.85094166838788
H         6.10528522603898    5.66934480305481   16.41412870110947
H         7.31453072923305    6.27962004919807   17.54827774650198
C         8.67116587944578    2.23655559123741   19.99136764023146
H         9.40792579602165    2.04845990634009   19.21100511356370
H         8.48639416718087    1.30704393571937   20.52397298109604
H         9.09916933780790    2.95933374528889   20.68409977336756
C         1.23144590805160    4.21963209444294   15.31877039858468
C        -0.07663010117029    3.99368398508742   15.75674670611673
C        -1.02609263050676    3.58312992385059   14.83333412643930
H        -2.03500238194734    3.39532416802778   15.17141410538429
C        -0.70740173819455    3.38312751184202   13.49966164794694
C         0.58441976768852    3.66036698537007   13.08184939632939
H         0.84108216143829    3.53848772417900   12.03905839765613
C         1.56500660404326    4.08815092719628   13.96605164508435
C        -0.49020732193424    4.17180373005055   17.18915594974450
H        -0.84585290538200    5.18921194620194   17.35672632532647
H         0.32964961257339    3.98333865118267   17.87806246222583
H        -1.30612221875803    3.49323256693937   17.42636513114308
C         2.92794716777605    4.42874884096936   13.44310526858032
H         3.38972213411298    5.23016893850745   14.02015859572635
H         2.86447826112821    4.73572856148630   12.40095648396248
H         3.59881833861275    3.55237734585897   13.49739698562927
C        -1.72730900887672    2.85918278587602   12.53697260338470
H        -1.56722407166135    3.26402331021302   11.53993881603466
H        -2.73567004974252    3.10427545373801   12.86292819576419
H        -1.64363585889165    1.77304070255100   12.47804321541219
C         3.56921542338055    0.12493406456576   13.70568486063258
H         3.70578368469847   -0.60990491359029   12.90892576354219
C         2.28225555516298    0.29397981008293   14.32768769787198
C         2.26588293596386    1.14688017738537   15.45819868949462
C         1.09009726567073    1.16922849514276   16.19983224048577
H         1.03370640714478    1.75385920314235   17.10898421758620
C        -0.02380109155352    0.43756551359349   15.81769702236002
H        -0.92087622997855    0.47399012055262   16.42088241931296
C        -0.00622521010055   -0.33601409645844   14.66617427603057
H        -0.88907068684872   -0.88183830302094   14.36457014645501
C         1.15424719820617   -0.42415744766822   13.92691908711326
H         1.19872984148457   -1.04604054855554   13.04242819582789
C         5.88071145996115    0.59915371026301   13.78442488633026
C         6.83463078394068    0.30843013089410   14.77507439998538
C         8.15686702989214    0.15650485869038   14.40685330457248
H         8.89338723079877   -0.06733648431712   15.16587148704761
C         8.56252394423808    0.30144040295583   13.08514473319552
C         7.61138480054581    0.61911188479585   12.13035526674481
H         7.91659891693104    0.76425584295697   11.10313220518598
C         6.26975695499990    0.77202168503417   12.45262836637152
C         6.39623952863011    0.18006365778446   16.20229683765320
H         5.90417819694932    1.11930823274191   16.51680846135692
H         7.24887408134555    0.00567769361559   16.85391051904401
H         5.68318448013327   -0.63946760893350   16.32209058250927
C         5.29512233989868    1.18004434816095   11.38488105574526
H         4.91308074619908    0.30834153130851   10.85081502443296
H         5.78931840320427    1.82482260419912   10.66089130978517
H         4.44818439045225    1.72040150534154   11.80739685789699
C        10.00790600042339    0.14750770841017   12.71974231871843
H        10.41390322771592   -0.77176433822597   13.13968759289582
H        10.58455688550139    0.98098124147413   13.12108512623085
H        10.13788554559686    0.12819015727314   11.64033715749012

