100
CSD_code = TAPNIK | q = 0 | S = 0 | Stoichiometry = C43H52ClN3Pd | MND = 4
Pd       35.82837401623686    4.43937421081757    3.26164911880878
N        36.94833733626250    2.15755133516189    4.71666842204501
N        34.86811153246329    1.75824388021616    4.33004832192487
N        35.81531724088779    6.33452528915484    2.45151027741874
Cl       36.24276762089068    5.25515457226560    5.42554408702177
C        35.86819806581785    2.62850060785288    4.05616540404587
C        36.62555725640365    1.01899973214133    5.40988417230249
H        37.34135365544262    0.47781094009434    5.99181395919627
C        35.32063918343604    0.76931708460083    5.17109230576201
H        34.68030750741361   -0.00170838268339    5.54458723371584
C        38.25174380695888    2.72701327427002    4.67993056619758
C        38.93653013839527    2.76332346298004    3.45631782757437
C        40.21269372331772    3.31330785870987    3.43200533085605
H        40.75940916873537    3.34935664730329    2.50258215422478
C        40.79744495806181    3.80552325813370    4.58110110609489
H        41.78726659397692    4.23655843590580    4.54278259368728
C        40.12496198525694    3.72393568929894    5.78366571766025
H        40.60233165999533    4.08615408745631    6.67999528450899
C        38.84876834499479    3.18186986130758    5.86362196351318
C        38.38882129452666    2.14159774228077    2.18891827183852
H        37.35809691523622    1.81169531300244    2.35450094232395
C        39.22293610795398    0.91150069052114    1.81788554283862
H        38.80495880819181    0.43085707613522    0.93604156361198
H        39.22845728352972    0.19154644101133    2.63427796771723
H        40.25159991281057    1.18917228414838    1.60229826106265
C        38.35955914819714    3.15251896785636    1.04127572943559
H        37.73832678018001    4.00726437918877    1.32813133051882
H        37.92313908166859    2.69720800672133    0.15484903304224
H        39.35749012101401    3.50408372404336    0.79343780327446
C        38.19111537358269    3.05705868715212    7.21826114694446
H        37.14161376316632    2.78392204953198    7.08506358622250
C        38.89685856025906    1.96245058230598    8.02774049310206
H        38.92378889201161    1.01695110855767    7.48868728553261
H        38.38083671966778    1.80594948393255    8.97235530471335
H        39.92317173812931    2.25248070635210    8.24136882612884
C        38.21080200490248    4.37514606771582    7.99280284276529
H        39.22291630269505    4.68482193308810    8.23890529356516
H        37.65551266430252    4.25888311683863    8.92092457565878
H        37.73308163019534    5.14812645517966    7.39822939072392
C        33.57530318139554    1.77108368662628    3.73547804437389
C        33.19588784155949    0.71407814027850    2.89318246344000
C        31.95899266598708    0.78877360159730    2.26797546898351
H        31.64281495580321   -0.00992084066188    1.61579383268462
C        31.12202988517920    1.86992616931800    2.46256562518325
H        30.17230503519286    1.91555111171261    1.95043424691503
C        31.48794730537307    2.87360080621645    3.33477459451845
H        30.81138718135468    3.69453011967503    3.51352283883858
C        32.71006910278647    2.83833867123191    3.99626915965247
C        34.04069664438544   -0.52867765345366    2.69858455445693
H        35.04790850435923   -0.35097242456025    3.08840704769498
C        34.18801373923591   -0.94404305121709    1.23287610731590
H        33.23427003736929   -1.24008416863907    0.80486129233206
H        34.86424206822310   -1.79417869506823    1.16521133525780
H        34.59635929821403   -0.13487676183145    0.63456154008346
C        33.41142660537601   -1.68356178840686    3.48819307001971
H        33.27082926528492   -1.41960651442147    4.53393351806802
H        34.04625160831834   -2.56546974124612    3.43648646596565
H        32.43734214766785   -1.93445707702616    3.07501879851404
C        33.01621376262521    3.89343493431402    5.03366824245906
H        34.03974531892032    3.77209796358244    5.40493167664489
C        32.91548926977559    5.29938564027980    4.43617214450581
H        33.47681107505983    5.32435872292221    3.49117603967436
H        33.34994465076167    6.01944324186993    5.12786315716386
H        31.88297194095556    5.58165683784328    4.23861033688619
C        32.06886771707865    3.73458175658332    6.22607536064199
H        31.03331973304930    3.88170652704852    5.92641199600554
H        32.31685034801909    4.46791105431851    6.98939473998794
H        32.16142295974675    2.74051603372612    6.65981986281171
C        35.13620653169669    3.97010180127951    1.44103225964380
C        34.82485189137886    2.76092796430780    0.83078088634961
H        35.08209845872934    1.83365972931394    1.32345406700951
C        34.20479044989468    2.70558992509661   -0.40757057162302
H        33.97450075728568    1.74637518568559   -0.85203560711672
C        33.87124163924796    3.86818618279418   -1.08789587841689
H        33.37903347285018    3.81436405816885   -2.04836525032229
C        34.18502395142053    5.08969926347762   -0.53197477557888
H        33.94648634297266    6.00873328431329   -1.05093022573526
C        34.81264591054475    5.14106105537292    0.71445773445340
C        35.22778049720290    6.38108168796699    1.31283511107539
H        35.10096272421698    7.32355311163926    0.77497213536956
C        36.28808666654375    7.47965765146164    3.10052192331552
C        35.45455909132547    8.55703366599382    3.42123883669659
C        35.99243690652902    9.62472636369740    4.12766812207586
H        35.34294925778816   10.44894342163954    4.38926676787203
C        37.32283349600916    9.65933719999812    4.50898908222987
C        38.13699947475193    8.58769823037333    4.16578572320207
H        39.17858075768938    8.59771189470415    4.45464593202731
C        37.64365629013852    7.50079692756421    3.47038072669289
C        33.99605479645534    8.59609583282156    3.06230351558203
H        33.83975689416498    9.22348316481270    2.18290836116311
H        33.42447627821321    9.02644328722449    3.88257385033487
H        33.60056894143617    7.60607915639307    2.84930952181907
C        38.53572891412723    6.36400425577889    3.07822970913072
H        38.07737780410905    5.40643347554384    3.37965528061140
H        39.50435615846572    6.44802244139596    3.56453465025684
H        38.68449188847354    6.34851167501118    1.99607481609829
C        37.87398113554812   10.81061175397806    5.29428633983583
H        37.93024897488883   10.54447607911090    6.35015149722340
H        37.23961888883220   11.68861948964210    5.19792718266191
H        38.87850401083192   11.06090782129475    4.95861367747734

