81
CSD_code = TAPVIP | q = 0 | S = 0 | Stoichiometry = C24H43B9P3RhS | MND = 7
Rh        3.81768623792115   -0.07462588021194    1.81756874026800
S         3.30251459088239    1.83328370966612    0.46482118991944
P         1.91376579573635    0.49437824998443    3.17198443782792
P         5.68231598701570    1.27241658192566    3.19630671005921
P         4.07762061916580   -2.09966539534956    2.85928746695836
C         0.28233838148167    0.35562456263331    2.32521716776282
C         1.71510968517049    2.25820220838292    3.69656871403566
C         7.38584894745511    0.55646705415589    3.29006896539251
C         5.59896171292367    1.81535369140519    4.97338265270905
C         5.18308160491185   -3.43257226229085    2.22147251766949
C         4.67701025471161   -2.09050710063324    4.60678591288040
C         1.51015356567124   -0.30412811413799    4.77013467281706
C         0.55945325193708   -1.31192534569143    4.88566742665696
C         0.32279695401271   -1.91984873206147    6.10589312346756
C         1.03559591989117   -1.53838104773904    7.22911616149810
C         1.99690695879704   -0.54592761586032    7.12349264517030
C         2.23526124336358    0.05753849130728    5.90336017116340
C         6.05240801870986    2.91519200307404    2.47221800221994
C         5.08273870878026    3.90725183991913    2.59117707444218
C         5.26756894994511    5.15261323872618    2.02452143745136
C         6.42281297509238    5.42263091027572    1.30939176498033
C         7.38134935455831    4.43613761520557    1.16237716984169
C         7.19753307933417    3.18935953633675    1.73398737638615
C         2.53953372670209   -3.08788403252179    2.99121316768519
C         1.64935565630182   -3.00919874883273    1.92515997981403
C         0.47745281600023   -3.74336494672646    1.92634457213555
C         0.17595363908665   -4.56385179623728    3.00120732535789
C         1.05589044628981   -4.64754432072174    4.06640190387837
C         2.23158297551860   -3.91700318083050    4.06244251631822
B         3.63038858550898   -0.16088156074534   -1.85366334599702
B         3.22916074724101    1.51858401734918   -1.49300727310522
B         2.76604525353460    0.15638997013812   -0.38049812503415
B         4.07269834513563   -1.05781074567855   -0.36667723204563
B         5.35040738902991   -0.45776740808395   -1.46565365948286
B         4.85800396418480    1.13944989113953   -2.06112879448148
B         5.54703362061220   -0.49344525095452    0.30431287777385
B         6.01741074087789    1.03548155429866   -0.72442135838346
B         4.70398803264096    2.25157855528974   -0.73333875252063
H         5.86526605419666    0.77970501644003    0.51974272061518
H         0.14585127895708   -0.64457885488807    1.92295690262575
H        -0.52804701056948    0.59374017307849    3.01291681885744
H         0.27536001848120    1.06359258315876    1.49854976888336
H         2.52244567412492    2.55437724534542    4.35979672106561
H         1.74766174484923    2.88355922551892    2.80585093883970
H         0.76386635915341    2.39833633216974    4.20783930914435
H         7.70624198877521    0.21748266390967    2.30878045871232
H         8.09393289888174    1.28462954786352    3.68238655848887
H         7.36332210475026   -0.30738942320406    3.95198909173505
H         4.73943431598640    2.46092913702937    5.13095584256909
H         5.49789957285208    0.93821674262608    5.60972853009030
H         6.50012362165084    2.36014023781871    5.24967885834374
H         4.97305058274793   -3.60128999136233    1.16947689759217
H         6.21899035686398   -3.11819794887394    2.32317775367777
H         5.02115476588166   -4.35316540745358    2.78097455212931
H         3.92390068483340   -1.65062559660939    5.25623717004208
H         4.92730121446777   -3.09160804896044    4.95178817810602
H         5.57246602231242   -1.47421548876929    4.64699633465306
H        -0.00046657621381   -1.63229403751114    4.02139672366255
H        -0.42314266492285   -2.69799273476249    6.17758191579287
H         0.84729326241930   -2.01237374429747    8.18109396447873
H         2.56301115441502   -0.24580109463038    7.99406220398621
H         2.99631695380973    0.81954320074518    5.82244780683987
H         4.16790208896331    3.69268345858612    3.12380224888070
H         4.50581510740446    5.91159994425159    2.13048250745835
H         6.56801489494685    6.39313830140528    0.85865816896223
H         8.27620592133950    4.63396141736943    0.59081144428616
H         7.95262185565269    2.43294052879154    1.59029663717808
H         1.89151585181283   -2.36269530418087    1.09308126833348
H        -0.20385601794790   -3.67562300625870    1.09012575973036
H        -0.74086760557142   -5.13531848006521    3.00906266315414
H         0.82611182574893   -5.28610169442898    4.90747764237748
H         2.89833972925256   -3.99569774398658    4.90717929956957
H         3.08542339906188   -0.71838914536140   -2.74085867699986
H         2.39464462577510    2.18012909405794   -1.99867744738599
H         1.61999690672530   -0.08213673005043   -0.21631995824862
H         3.79483373624804   -2.21182768668209   -0.32955824569099
H         5.99955142240690   -1.20378035632249   -2.11112146275887
H         5.24143796496018    1.52838969987186   -3.10772260678840
H         6.39891736364657   -1.15323507495436    0.79516721575841
H         7.14833491854780    1.35285819390265   -0.87440178521718
H         4.91068289618954    3.41588465379026   -0.73678599699814

