55
CSD_code = TAPWAK | q = 0 | S = 0 | Stoichiometry = C24H24Cl2N4Pd | MND = 4
Pd       -2.42401279586143    9.22243253269595    5.23099314599449
Cl       -0.37250401547770   10.19804135748170    4.84529587476752
N        -1.66291042900233    7.41812184518940    4.96982810892728
N        -0.62989122791838    7.74097884692065    6.98358141811290
H        -0.60075265146030    8.73406261744008    6.69963251774333
C        -0.91929483771674    6.88950984587881    5.96003480681183
C        -0.47293022297826    5.56123606884502    5.87508535583702
H         0.15444978742942    5.15965693467717    6.65343873994956
C        -0.81833636942267    4.80745604732572    4.77684907749885
H        -0.47949069292211    3.78598386241468    4.69495143395828
C        -1.59332167567891    5.37357499148399    3.76739437920581
H        -1.87731424027820    4.80728525505459    2.89644018727272
C        -1.98840868127079    6.68742778503535    3.90759122081706
H        -2.58988433340153    7.18551267863458    3.14919815675207
C        -0.01889956998985    7.43687461898754    8.20112416438172
C         0.87872821568166    8.35128784370302    8.74670298150298
H         1.10851832933094    9.25578723693186    8.20199225589980
C         1.47131064444477    8.10190133743427    9.96890852170496
H         2.16957330920189    8.81875794822387   10.37605570390786
C         1.18349012180589    6.94412147669972   10.68133544777807
C         0.26505238006941    6.05057231906808   10.14273202889979
H         0.00869760576239    5.15667061122021   10.69307839369683
C        -0.33855098520405    6.28963334177301    8.92337501669573
H        -1.08065300574785    5.60373886074521    8.54420834324917
C         1.84693510093409    6.65669572264065   11.99348546156405
H         1.14563104885204    6.20171863457948   12.68985359793060
H         2.24381952232928    7.56669208611898   12.43638846177785
H         2.67398156571521    5.96047672924498   11.84949889219494
Cl       -4.47530641962513    8.24630146949112    5.61584859009849
N        -3.18490058553261   11.02702180330732    5.49094068169737
N        -4.21793187510698   10.70336650270668    3.47727205247078
H        -4.24745136679094    9.71042824427328    3.76170303519345
C        -3.92852671322728   11.55522968909540    4.50051005910706
C        -4.37494649356270   12.88351029894328    4.58497143877010
H        -5.00231238303894   13.28478551331230    3.80645116079168
C        -4.02962214314212   13.63769679952066    5.68296008449648
H        -4.36848111250894   14.65919462707011    5.76446457088745
C        -3.25467924055295   13.07196642977760    6.69265688306491
H        -2.97074222856010   13.63856600491916    7.56342717072011
C        -2.85951467927948   11.75809526763160    6.55292981578629
H        -2.25808127474217   11.26029875491801    7.31153671378737
C        -4.82872132274935   11.00701468603428    2.25952416418068
C        -5.72620005644106   10.09233970749581    1.71412420686971
H        -5.95606814543804    9.18804852634911    2.25915501169030
C        -6.31854185988330   10.34120738783031    0.49169716032296
H        -7.01668885695146    9.62415389640473    0.08469229320906
C        -6.03062242728637   11.49871738900682   -0.22113031301501
C        -5.11232851664639   12.39252015332515    0.31730190395339
H        -4.85590033414452   13.28621491124932   -0.23334783779336
C        -4.50896644854762   12.15397856094486    1.53687994048428
H        -3.76698041324538   12.84006374921955    1.91593128234423
C        -6.69379855219158   11.78557661904249   -1.53353942791794
H        -5.99235508728576   12.24026764980912   -2.22995454141700
H        -7.09057584499309   10.87538356692306   -1.97613534898254
H        -7.52088751576509   12.48184235494553   -1.39002444562558

