69
CSD_code = TAPXIR | q = 1 | S = 0 | Stoichiometry = C24H37CuN7(1+) | MND = 4
Cu       16.15969221262255   13.46541641912315    2.44939433064151
N        17.51420411325173   12.22510850313963    2.17092375737078
N        14.33255388170775   13.17401693572918    3.48809996949647
N        13.53193784129622   14.24713373468358    3.53191865774007
N        16.27244915188801   15.32041591033802    3.46074339083322
N        15.12155692447832   16.00327851297970    3.52190926874565
N        15.00536079506308   14.48874564348865    1.00208424336431
N        14.08849771381979   15.32918625235779    1.49964584733140
C        13.91589563372757   15.49376262478271    2.92030656653722
C        18.31641557108821   11.41271268853025    2.04003084061266
C        19.31131092534099   10.41053395857092    1.87608487904918
C        13.71335114971600   12.19542121807383    4.12523255126650
C        12.46714219506422   12.65950856325418    4.59545356284496
C        12.38791005468311   13.96718882708771    4.19880864561993
C        14.32225098272062   10.83036510520091    4.27427809421069
C        14.56180308884855   10.24921698030931    2.87513956087879
C        15.65613754159894   10.96988312198698    5.01843089858398
C        13.39168117150259    9.90571164014743    5.06033343535423
C        17.18742716452575   16.03391524236767    4.09358419669855
C        16.59955388021723   17.22018671259203    4.58038570263549
C        15.28660681457579   17.16452011645359    4.19740909216519
C        18.61087131543036   15.57163761276233    4.22166842070553
C        18.62370081903988   14.23511386797287    4.97405852166428
C        19.44608009494050   16.59887158868337    4.98718551369637
C        19.19080273051086   15.38414555735088    2.81418023108131
C        14.92665505557260   14.55556488288659   -0.31549285165522
C        13.91948604687321   15.47484628128495   -0.67661209080433
C        13.41013976321526   15.94541161952873    0.50349820596806
C        15.81509395707924   13.73847207909694   -1.20960808763137
C        15.57917592276469   12.25373489485610   -0.90544827068425
C        17.27477473337697   14.10604723827078   -0.91523909700205
C        15.50376551730466   14.01600013930545   -2.68094191098125
H        13.11194706336408   16.22225722553759    3.08811941004951
H        20.24022927642849   10.86683206826969    1.53401591796810
H        18.97792152184317    9.67901895949659    1.13990980933692
H        19.48672316413500    9.90873799001754    2.82775800829432
H        11.73235038752119   12.11295454999331    5.14653432558496
H        11.62034131233484   14.70075183010010    4.33915119468573
H        15.20849395234435   10.90770982298457    2.29991403890947
H        13.61956377210697   10.13699534888167    2.34396337219309
H        15.03093454656304    9.27198098163653    2.95323279104153
H        16.32174440025352   11.63758180501037    4.47631890290598
H        16.13147088651521    9.99728307173032    5.11517250527701
H        15.49473192730811   11.37431375247232    6.01490108986666
H        13.84987693024839    8.92509507530863    5.15886927515168
H        12.44035910061392    9.78465923122181    4.54843267681616
H        13.20851604168437   10.29550647038185    6.05845147210314
H        17.07173807484313   18.00375653355729    5.13300799001798
H        14.47818452333696   17.84968323560102    4.35232524890833
H        19.64194368199502   13.86399828250176    5.05528849865280
H        18.02037720710541   13.50039166006950    4.44579796834064
H        18.22139111553182   14.35913297520454    5.97673191216579
H        20.47240165503539   16.24968851676570    5.06455406838824
H        19.06045022681328   16.74157186271355    5.99351896959184
H        19.45232659253228   17.55627981735601    4.47229337954420
H        20.21599944018429   15.02929500824417    2.87852079153029
H        19.18648711954917   16.32705846672835    2.27244211085637
H        18.60037197973823   14.66046023210333    2.25700619028857
H        13.61152851475011   15.75222321010309   -1.66177704123658
H        12.63381975479724   16.65589556638826    0.70227227080876
H        16.22894191108449   11.63985662284161   -1.52357467288887
H        14.54727991096864   11.98179123698333   -1.11489532224086
H        15.78762704530297   12.04656125921976    0.14167651013432
H        17.94046462046869   13.50895717313231   -1.53284982140417
H        17.50519396062098   13.92306553290540    0.13174558774769
H        17.45372315853450   15.15651248704243   -1.13219606875823
H        16.15630024361783   13.41723366445231   -3.31095034550767
H        15.66816564422050   15.06310989438215   -2.92232089501554
H        14.47469457185520   13.75662410546597   -2.91650819644318

