51
CSD_code = TAPYAN | q = 1 | S = 0 | Stoichiometry = C23H19F6N2Ni(1+) | MND = 7
Ni       -9.36515773795142   -2.98362488100828   -5.39107010031320
F       -10.97477937519993   -0.90414298176155   -5.37688048513799
F       -12.57224013556651    0.35167839354290   -4.64456842941153
F       -10.69946120912326    0.25654708785289   -3.58414126544122
N        -7.65353091778709   -2.40109518917168   -4.82076017104758
N        -9.85988320284125   -2.53500445433987   -3.61556591057406
C        -9.09350096603585   -3.69407353834554   -7.32661736047715
H        -8.32994128562990   -3.43903603657119   -8.04716787739672
C        -9.04010813536539   -4.85962929940353   -6.45912322569830
H        -8.22977212748819   -5.56925644555642   -6.42562363129873
C       -10.24992976978775   -4.93839195644718   -5.79538793931691
H       -10.58216389142929   -5.72224905714550   -5.13478983957836
C       -11.06571916325499   -3.82154757757832   -6.24274950480892
H       -12.10306722187607   -3.68255266222604   -5.97439911796530
C       -10.39371181523683   -3.15940149168313   -7.28658314636362
H       -10.78390944656583   -2.36981529394300   -7.90372012630513
C        -7.61055947232173   -1.99022020949918   -3.59024664574594
C        -8.88857533287801   -2.06862684230873   -2.89177394626832
C        -6.40360730570631   -1.43875168748180   -2.92624983832730
H        -6.20907138649332   -1.95476434286798   -1.98784470404399
H        -5.52798865778124   -1.51579544506405   -3.56498739686731
H        -6.57380671958429   -0.38659448187535   -2.69571163218528
C        -9.02966862953204   -1.60075736722968   -1.49074300269153
H       -10.02050296865580   -1.81310616497910   -1.09833835839793
H        -8.28253237895183   -2.06613151111095   -0.85064889436873
H        -8.86766550986502   -0.52267395803337   -1.45811303328865
C       -11.17730142380164   -2.64304752966026   -3.12895380064270
C       -11.59110550083466   -3.74520972162711   -2.38722227179097
H       -10.87860819987983   -4.52252472869087   -2.15595182080931
C       -12.90669710539735   -3.83793398129580   -1.96776207787974
H       -13.21980785119865   -4.69587260303216   -1.39369170761513
C       -13.81848025451164   -2.84100647285480   -2.27740215246266
H       -14.84143064918331   -2.92098632162353   -1.94760572062584
C       -13.41930220440194   -1.73831880757465   -3.01506063845777
H       -14.11906382965598   -0.95573768191554   -3.26323153438545
C       -12.10388299710280   -1.63880324152021   -3.43939975091212
C       -11.61388738530140   -0.47400233238091   -4.25215043985868
C        -6.52827320036993   -2.36408416948076   -5.66716490248630
C        -5.58317670132802   -3.38534476004214   -5.66468704630672
H        -5.70087356918857   -4.21058560804169   -4.97880072227117
C        -4.51646485257479   -3.33808016140931   -6.54499946656981
H        -3.78858997443758   -4.13412916316505   -6.53751165108422
C        -4.37757794346332   -2.28024300316005   -7.42971581058020
H        -3.54434689304065   -2.25113497670651   -8.11271625438917
C        -5.31120648324411   -1.25676694836623   -7.44188993518230
H        -5.21486285127163   -0.42808254644490   -8.12573692396245
C        -6.38287402042571   -1.29772231097933   -6.56431778983094
C        -7.43352721710629   -0.22399021055149   -6.53754595021456
F        -8.68115281615235   -0.76552709308119   -6.62909103006636
F        -7.32463862637307    0.66202787360117   -7.51599504762505
F        -7.42831268682895    0.45582389423469   -5.37408997066237

