80
CSD_code = TAQDAQ | q = 0 | S = 0 | Stoichiometry = C36H41P2Rh | MND = 5
Rh        1.38079327681682    6.58170565095299    2.85961416387426
P         0.47799354586027    4.58045617962422    3.29012950375314
P         1.81983593960999    6.16726344451311    0.70401375064170
C         1.34135243025392    7.32631221954180    4.87067169551610
C         1.23825480913511    8.38628899455903    3.94113268888116
C         2.16888063832964    8.56733477275557    2.89103911982901
C         3.67565534084067    8.46838157580031    3.06078748618473
C         4.23274026809222    9.38168204983859    4.16725226586440
C         3.46664678038997    9.37682516165221    5.49031088962222
C         3.39092799580114    8.04201520971172    6.23215241217186
C         2.65182764271534    6.89968212602062    5.51029668096789
C         0.51174618681073    5.39093460198902   -0.38799100934049
C        -0.77688566689007    5.11490330689301    0.38845860019532
C        -0.86045058147076    3.69987369805326    0.95575490059062
C         0.27538670945178    3.34639229097847    1.91147853465386
C         1.31032443394139    3.53500195775089    4.53496935145984
C         2.31712150909451    2.64047471745896    4.18613304049481
C         3.00290072057760    1.94359846170947    5.16509928857358
C         2.69980733117610    2.13748410335999    6.50220743460474
C         1.71032722792789    3.03975728088553    6.85914512576130
C         1.02706845501760    3.73940634909564    5.88313840266600
C        -1.22941543342340    4.56742151069887    3.94348924057582
C        -1.84821623140610    3.41464838186560    4.41488452447806
C        -3.15326405779896    3.46619914645075    4.86818034833942
C        -3.85018680900291    4.66462056466071    4.85298810394104
C        -3.23903827577077    5.81610818756145    4.38553091792423
C        -1.93300023351493    5.76477853394599    3.93300007975475
C         3.22073346624809    5.02078556414773    0.44973904461473
C         3.64255573949297    4.59282391693956   -0.80491988552105
C         4.70268371295811    3.71152275105035   -0.91415002591245
C         5.34898414909911    3.25203169815531    0.22334862206834
C         4.93742170566141    3.67860565608828    1.47532016132368
C         3.87808972820330    4.56121703497921    1.58411305025395
C         2.33052891135500    7.57149997869806   -0.34954625204449
C         1.34884592975612    8.49835187475966   -0.69259677163641
C         1.67556675885617    9.64489878002878   -1.38926035888546
C         2.99521970424350    9.89036806397940   -1.73620231365103
C         3.98158370071349    8.99049427593170   -1.37063815278417
C         3.65473858612723    7.84006329714622   -0.67373282060819
H         0.50027073081948    7.24293768226722    5.56239482252897
H         0.27912031304227    8.90468577561456    3.86283595443677
H         1.89455700585660    9.34653639902540    2.17542558536484
H         4.14119095348429    8.76079121244266    2.11417911616976
H         3.99582816958585    7.44149240896409    3.25280722080457
H         4.23465444108285   10.41181694052668    3.79816635233108
H         5.27303002247415    9.09885358203773    4.35045574609954
H         2.45379636775935    9.74552472912258    5.31648393904782
H         3.95658324144851   10.09445931294098    6.15581009741183
H         2.88442336002607    8.23124130470058    7.18358063200007
H         4.40278882585887    7.69906044567302    6.46460261111958
H         3.32383975943406    6.44277821457428    4.77747587895456
H         2.43755519311047    6.12045637873392    6.24809505316610
H         0.90284994689649    4.46568156842668   -0.81743711866058
H         0.30897372035206    6.08216692439659   -1.20949109408880
H        -1.64088802585057    5.27062322279978   -0.26299519447248
H        -0.84846973877687    5.83000277890456    1.21878045145539
H        -0.86169718997199    2.98025500144067    0.13022118529595
H        -1.81331180587137    3.59784287729768    1.48224732363073
H         0.09961000586678    2.35217898311380    2.33362027344503
H         1.22527704854235    3.32671000545287    1.36769844045984
H         2.56688600159058    2.48836215707270    3.14570385429652
H         3.77893186607166    1.24585763694624    4.88334078806906
H         3.23571969765052    1.59121772713486    7.26466704584137
H         1.47503186293122    3.19909172765651    7.90196959600715
H         0.25806155872757    4.44879884091852    6.15836324846237
H        -1.30230520838584    2.48112177641470    4.43514717241465
H        -3.63154693428763    2.56958626676933    5.23624044193184
H        -4.86973130888841    4.69920508203348    5.20877889355487
H        -3.78148894586778    6.75067586272935    4.37634805961211
H        -1.43166515457489    6.65689361096287    3.56804165120020
H         3.14604961753105    4.96007462372537   -1.69308384643054
H         5.02983436244646    3.38100516980850   -1.88974926837438
H         6.17547075625151    2.56242159612286    0.13108326974601
H         5.44049990171435    3.32274136334641    2.36307197915047
H         3.52910910713047    4.90211285431659    2.55654757705036
H         0.32447158965636    8.31531471329776   -0.39187404172274
H         0.90551384633188   10.35490692499171   -1.65611742949009
H         3.25426023205478   10.78754079716071   -2.27933097127052
H         5.01333462575738    9.18809598567938   -1.62514341266508
H         4.43209413567977    7.14826616424042   -0.38050372307012

