81
CSD_code = TAQLEC | q = 0 | S = 0 | Stoichiometry = C26H50Cl2P2Ru | MND = 5
Ru        3.78744537696050    4.24755706793689    4.15320432379639
Cl        5.41745971168274    5.70139999501457    3.23067371846431
Cl        2.01415027574874    2.84382919271844    4.83778076077797
P         4.48796689916283    2.47767164562255    2.75887869210741
P         2.59704005451213    6.12059664323988    4.98983614038197
C         4.89717990762818    3.89744557325983    5.64111181505913
C         6.31130760138847    4.27794548392229    5.86703609001488
C         6.90860306613721    3.63489669317061    7.08974946758875
C         6.38165061976061    3.90070934421446    8.34869858951753
C         6.90743476222323    3.29664857055235    9.47577933915302
C         7.96870720317562    2.41475926141987    9.36022039899600
C         8.50123303203616    2.14524807454092    8.11188366424841
C         7.97425940059083    2.75159580439206    6.98459777071364
C         6.27107181290121    2.55956537578415    2.18197104856289
C         3.52767653300861    2.62119331273608    1.16269236741119
C         4.08037373052544    0.73478983783384    3.29615113707829
C         7.18646338499087    1.86569202431978    3.19067861780779
C         6.57755297738432    2.06768001516552    0.76968414328099
C         3.60343822608873    4.08343610955060    0.72780305517640
C         2.07129997383534    2.18354090820941    1.32017445664457
C         4.46731417721566   -0.35844167196725    2.30598165585388
C         4.59460612822595    0.41736943356347    4.69863847371802
C         1.28475282158201    5.75806682065713    6.27419696787027
C         1.57598413689736    6.80610652290537    3.58253393437220
C         3.61956145723612    7.58985741383705    5.53360603280509
C         1.85044652739363    4.99815354288268    7.47177562316915
C         0.45460003550135    6.94577870180684    6.74993239692491
C         0.72208312593524    5.67286524964550    3.01153271381205
C         2.47606736926407    7.40667380861875    2.50164729638502
C         4.30845567662699    7.27497961275027    6.86103175287686
C         2.93813646325343    8.95370618982435    5.60829756321725
H         5.55393281861194    4.58911901360056    8.44763327607666
H         6.48836076793714    3.51506545490653   10.44721355433234
H         8.37949994333978    1.94169836441410   10.23982535811678
H         9.33071227069159    1.46006851456552    8.01380416253847
H         8.40131813902531    2.53950997083901    6.01498653111702
H         6.48409149575244    3.63688052192380    2.22044796257416
H         4.01030974236239    1.99155097628315    0.40734514982076
H         2.98620653665002    0.77510514925319    3.36909381036791
H         6.83813471268050    2.03784750244420    4.20648435631174
H         8.20172663991492    2.25000519746056    3.09769545041300
H         7.21958624082645    0.79291127855395    3.01276760888467
H         6.09368208183630    2.67736279710367    0.01137625560039
H         6.28694146510576    1.02972891767612    0.62778975439505
H         7.65281104195841    2.13843378008012    0.60787802253892
H         4.63419447440545    4.43000866942043    0.65746843369950
H         3.09026668125738    4.70953723220180    1.46326837939783
H         3.11948885007470    4.23012050798204   -0.23775584417354
H         1.97729108997599    1.10006471852923    1.32234823584612
H         1.47852533788968    2.56913575024644    0.49090878812777
H         1.64317474732866    2.55950563545580    2.25029864390098
H         4.10106083619507   -0.14780580951685    1.30385667542920
H         4.03128803648774   -1.30264464366111    2.63063212303265
H         5.54552364461888   -0.49046173687160    2.26421133035288
H         4.44885881934947    1.27746650035419    5.35177130835498
H         5.64686839462517    0.14794677708760    4.69839060930864
H         4.03234813162553   -0.41797284703956    5.11238984576745
H         0.62865958535691    5.05706464257958    5.74198016592448
H         0.91358483867118    7.58873304644841    3.97178637747536
H         4.38952361718888    7.62748147131549    4.74973320662147
H         2.43552705124757    4.14709113463395    7.13207908563936
H         1.02984545545911    4.61898565443674    8.07905047110707
H         2.47088897432082    5.63200313401476    8.09890556054542
H         0.11328354686796    7.57244561451821    5.92990634722659
H         1.01903256305468    7.55741867838119    7.44950545399219
H        -0.42549324872387    6.57503011736750    7.27427499829819
H        -0.08303416657331    5.39676941837905    3.68950855866675
H         1.33409684135378    4.78089599909677    2.84344739643581
H         0.27815889167636    5.96659612582759    2.06063696401705
H         2.90797840547009    8.35298012752763    2.81680106916278
H         1.90206315574583    7.58538318985301    1.59260214118724
H         3.30423604779885    6.74109917985909    2.26050681009231
H         4.56315814779274    6.21715683761010    6.90829942019441
H         3.65795343137333    7.51456265828799    7.70008262917679
H         5.22080621959270    7.85988180380740    6.96632362483813
H         2.39669561075386    9.20254168709205    4.70077978931992
H         3.70393648438936    9.71445397980311    5.75736435785211
H         2.24830988780530    9.01107634715112    6.44493438236374
H         4.45656270326912    3.34982816096885    6.49007864175543
H         6.35395838600123    5.37101233227214    5.96479380428655
H         6.90754216075457    4.05610390736817    4.97720895384360

