22
CSD_code = TAQLUS | q = 0 | S = 0 | Stoichiometry = C10H8Cl2FeSi | MND = 11
Fe       10.01042066161139   -0.00000000765774    0.60855529126101
Si        7.80268020149402    0.00000001214540    2.02495147932082
Cl        6.84397379563468    1.67940919543151    2.64009560421196
C         9.60069780704666    0.00000002106665    2.58114225977540
C        10.40351449360352    1.14285730363099    2.25467476507542
C        11.65557294475300    0.70769177607284    1.79096044841391
C         8.04664613487195    0.00000002397370    0.15875538184955
C         8.67810120193703   -1.14288860270819   -0.43484458846424
C         9.62126435234264   -0.70766154504989   -1.37985290003037
H        10.09823239463714    2.16488257688602    2.38177259532443
H        12.48197744006183    1.33748151281124    1.51546916422292
H         8.43493298898573   -2.16485914603576   -0.21073455833370
H        10.21695783660565   -1.33736600947382   -2.01564279590216
Cl        6.84397395927470   -1.67940929993642    2.64009552163824
C        10.40351448092179   -1.14285728172645    2.25467480485490
C        11.65557293718227   -0.70769178428277    1.79096047397270
C         8.67810124118927    1.14288862943906   -0.43484458661091
C         9.62126437847414    0.70766154151607   -1.37985289734627
H        10.21695788875772    1.33736598823617   -2.01564278661919
H         8.43493306562214    2.16485918129140   -0.21073455369374
H        10.09823236869309   -2.16488254765413    2.38177266784330
H        12.48197742629965   -1.33748153797586    1.51546920923604

