25
CSD_code = TAQMED | q = 0 | S = 0 | Stoichiometry = C14H8O2Pt | MND = 4
Pt       -0.00034735080577    0.28885679377294    1.87503888277685
O         2.17364112413510    2.22985060763106    1.12652330568546
C        -1.31709890246301   -1.24890049110104    1.70933141855948
C        -0.73404204439512   -2.53243201989301    1.59558010178938
C        -1.52428240641694   -3.66997505934529    1.52517823095075
C         1.43534275564890    1.57880469057210    1.69871070715615
C        -2.70805437104428   -1.17949249586653    1.74512508780979
C        -3.49538117340671   -2.32324820072064    1.67620576538957
C        -2.90538228593786   -3.56593442592748    1.56069505711928
H        -1.06931690376088   -4.64592064265091    1.44389339449496
H        -3.21564586905219   -0.22720538515599    1.83409555931057
H        -4.57166953395474   -2.23322003869709    1.70900817259154
H        -3.51603173618868   -4.45510400674039    1.49939860644911
C         0.73348853183693   -2.53242408643630    1.59486952207796
C         1.31669617914129   -1.24927590166625    1.71136317584072
C        -1.43594015592231    1.57696220117677    1.68163504295261
O        -2.16793932154900    2.22192143721269    1.09448781123781
C         2.70759576156184   -1.17967612539671    1.74531723904730
C         3.49493013629826   -2.32317422942608    1.67196294077799
C         2.90489322086141   -3.56558543324724    1.55383717187121
C         1.52375588888320   -3.66967561669441    1.52007709309372
H         1.06876198574520   -4.64538226995013    1.43616987241733
H         3.51554217851639   -4.45450269717698    1.48902176614794
H         4.57125236397669   -2.23310562379462    1.70340752137603
H         3.21523192829239   -0.22766098047843    1.83656655307623

