120
CSD_code = TAQQUA | q = 0 | S = 0 | Stoichiometry = C64H42F4IrN5O2P2 | MND = 6
C         5.96451632132240    7.25279053849295    6.95790820371977
C         6.00222791715963    8.42713739716589    7.70310000455077
H         6.05181215379595    8.40908608107349    8.78140425570121
C         5.95516891486641    9.64837238749964    7.05735060245629
C         5.84943547600375    9.75957813925626    5.67934046386168
H         5.77860526976571   10.73335907138090    5.22230434236159
C         5.82763976643748    8.60573016007880    4.92520062062385
H         5.72166626677393    8.67398101332025    3.85384203753433
C         5.91674072124035    7.35984427470446    5.54973674818561
C         5.83726043442039    6.08160085247005    4.86166524686658
C         6.06041001594380    5.85374107383889    3.46855166675840
C         6.82439913677199    6.77389879947837    2.61624734441154
C         7.93057115661082    7.46270011474642    3.11350001313557
H         8.19498183741191    7.36966758283246    4.15497221627335
C         8.69750672523874    8.24932932427476    2.27748145060087
H         9.55959063544000    8.78410891040174    2.64364244705419
C         8.34839597965749    8.34262256324843    0.94081101851517
C         7.26348281707134    7.66124956927965    0.41857253636267
H         7.02733259483887    7.75246426889967   -0.62974384021084
C         6.50978276139033    6.86872532886326    1.26264196874279
H         5.66672652529085    6.31285857103852    0.88483783953163
C         5.12656775533867    3.77843914346859    3.64831741832676
C         4.64692404238247    2.60583675252970    3.03553089099500
H         4.67667201742735    2.55372286914475    1.95893966067296
C         4.17604728322415    1.57605710191746    3.80229566868701
H         3.82110774994149    0.66907117256431    3.33601807772881
C         4.13813595844406    1.69190305474317    5.20030316821513
H         3.74869759704408    0.87491372123604    5.78920706962582
C         4.57259515272894    2.83061489453492    5.82338420929725
H         4.50759828069134    2.94076351690486    6.89191854569172
C         5.09159314412979    3.89663696724483    5.06837315996566
C         4.24943862061676    5.43635751636290    8.47672937659877
C         2.97762038291938    5.55459568398709    7.93147109484350
H         2.83091430364706    5.73709521737334    6.87763105967962
C         1.87150798086730    5.45321336997239    8.75580125590408
C         1.97540096035842    5.24351873436854   10.12228788223804
H         1.08429196710639    5.19403791891051   10.72717709929904
C         3.23117279107829    5.10939142641124   10.67642443585240
H         3.33084815085359    4.96284974154541   11.74083263692692
C         4.36318873096011    5.18284422729131    9.86317206801299
C         5.73294551666992    5.13879716205486   10.34694411501108
C         6.18038140991301    4.66234707212942   11.61818840907300
C         5.41720385859208    3.68383090035560   12.40120649964970
C         4.72225316896373    2.66264760756338   11.75311337543902
H         4.70489757805606    2.63453260870169   10.67505871776684
C         4.08233539256140    1.68112288999956   12.48296498016253
H         3.54824365649882    0.87860497340140   11.99905662633354
C         4.14063134309076    1.73384140530042   13.86547824593048
C         4.83292489180657    2.72886278180067   14.53293565380351
H         4.86197959073975    2.72997447519769   15.61107078949606
C         5.48136529804603    3.69836947498885   13.79192063064317
H         6.04218391643075    4.47901692326123   14.28067632854088
C         8.18909974068035    5.70199821561415   11.31001168546983
C         9.42590475937535    6.13583857307620   11.82077928567969
H         9.63944863219781    5.94100305300150   12.85951418516134
C        10.31594960090222    6.77679228714655   11.00338367808290
H        11.26738556771651    7.10872319798894   11.39155713027576
C        10.00335435938265    7.01231829637146    9.65594555241579
H        10.71823956271788    7.52974165280795    9.03369932612456
C         8.80222663908587    6.61557398745521    9.13200544870235
H         8.53683925973027    6.81637373588486    8.10644588711563
C         7.86362549369776    5.95853782251930    9.94648268218507
C         8.29721565929642    2.33755610739755    9.71748682891532
C         9.47893211595322    3.05846708455616    9.70929323318290
H         9.81635700118248    3.50980905409006    8.78502736776109
C        10.22144517163254    3.19025503294793   10.86914867771025
H        11.14985480665268    3.74267311865929   10.85254265056563
C         9.76764195202442    2.61821189529533   12.04565047064490
H        10.34059768608540    2.72758732630154   12.95436520011628
C         8.57952164757075    1.90552214022534   12.06010064553654
H         8.22218887230137    1.46467121522975   12.97916920320592
C         7.84955858742222    1.75698618406838   10.89567392955352
H         6.92758247551396    1.19130413538100   10.89177098158873
C         6.59800183459883    0.54436517683999    8.22040243066026
C         7.45051776163810   -0.51374548898237    7.94349171771549
H         8.48965649230602   -0.30349223918542    7.73731283401169
C         6.96255458110359   -1.80704938708844    7.92593919828928
H         7.62402186362954   -2.63338558179934    7.70879768597021
C         5.62210495014450   -2.04516858885345    8.18864727407859
H         5.24161965369787   -3.05625893534690    8.17578359129218
C         4.76957911748677   -0.98968839549646    8.46637932140659
H         3.72457716416526   -1.17706144965924    8.66975365987959
C         5.25856043504211    0.30495613199845    8.48152963808185
H         4.60509715760361    1.14012078615345    8.69245890359077
C        10.49444442399553    3.76288338159353    6.44632021836853
C        11.14441312765704    4.94351782392128    6.76910886445403
H        10.56329981715440    5.84523696819419    6.89592415438151
C        12.51853844182343    4.95222041405503    6.93327012570799
H        13.02751708297383    5.87121151005031    7.18756433068278
C        13.24153783946730    3.78238043006933    6.76983380937714
H        14.31416516211119    3.78932012766767    6.89904522641567
C        12.59269417730614    2.60203334785618    6.43996986375374
H        13.16063768952453    1.69189324596879    6.31131953948467
C        11.22052016924273    2.59283132706766    6.27666371783239
H        10.68848042023775    1.68595630748109    6.02649911995868
C         8.54596148276481    3.47889035864585    4.42410259374509
C         9.10904976010105    4.44564820610938    3.60417415260272
H         9.61523314729682    5.28749465276255    4.05750957658195
C         9.02326657816968    4.32668435816977    2.23004959382635
H         9.45197423835571    5.08615663346905    1.59213121133730
C         8.38788459057571    3.22807577398737    1.67433132252532
H         8.32109685762688    3.13317115836445    0.60066940251467
C         7.84595524429711    2.25014444875508    2.49104062776083
H         7.36163331863908    1.38797578970540    2.05582963162511
C         7.92011085419544    2.37665036570110    3.86679679033834
H         7.49873917166949    1.62972779050224    4.52468571840142
F         5.99117707077378   10.77709245444488    7.79639130772727
F         9.09308470995582    9.11419821434916    0.12351664390601
F         0.64204701754579    5.57525735519460    8.21267135000993
F         3.51059784070964    0.78156885127596   14.58266810156080
Ir        6.03550128140847    5.35447278909179    7.58329713028459
N         5.48070259125399    5.05851292145529    5.64830348132853
N         5.67562618372992    4.74240205209109    2.89350331644576
N         6.62924733750220    5.64050433724788    9.49048861883583
N         7.36203524046247    4.97957972444245   12.08271967354607
N         8.11809449440662    2.31002413896307    6.85006387864608
O         6.12634695325479    3.21087464792329    8.38387783257594
O         8.09728557731990    5.00839507370227    6.66308173090924
P         7.25627965811005    2.23243520103666    8.21406150133503
P         8.68533792721252    3.69188434644840    6.22816919876838

