95
CSD_code = TAQQEK | q = 1 | S = 0 | Stoichiometry = C42H48CuN4(1+) | MND = 2
C         8.54853536992723   12.29102392888624    8.48733846985267
H         8.50618688716811   11.37363000826803    7.89827711908306
H         9.32290368924682   12.92801765564742    8.06061477082064
H         7.59478362774578   12.80248856401920    8.39783890096392
C         8.84496290178226   11.98241626922489    9.92408136279835
C         7.94111756930854   12.28859847038779   10.92798869812514
H         7.00792928487901   12.76638499259836   10.66875248272728
C         8.20992607008059   12.00170772777704   12.26108787206893
C         9.41063703624649   11.38515695582397   12.58365988404057
H         9.62831113098074   11.15276210323872   13.61540132586888
C        10.34215818413502   11.05897604087035   11.60956953063078
C        10.04642388687770   11.37144873381702   10.28439654920290
C        11.62997385667935   10.37724095799456   11.95805385719968
H        11.73346399107499    9.44740195099652   11.39814878980427
H        11.66499964332240   10.14778182263970   13.01879216063467
H        12.48250168194183   11.01140537831607   11.71623743555341
C         7.22433068297362   12.37062092746261   13.32369964478824
H         7.27017925381447   13.44257671568140   13.51480413219699
H         7.43767198770250   11.85089269387133   14.25378156264010
H         6.20987685084301   12.13412159172417   13.00977158776967
C        12.06525304554670   11.80342970605446    8.91242299780840
H        12.30387304643039   12.72312504260736    9.40504590388098
C        12.67554969875865   11.16007455348960    7.88600593986176
H        13.55072658453854   11.40944152030731    7.32258239492117
C        10.90613013877122    9.94426776464794    8.49553285242537
C        12.19792108231820    9.07709552109049    6.61799829107319
C        11.73552415522428    9.34660582503903    5.33100644978081
C        11.96460769270496    8.40295994244695    4.34111653453616
H        11.62056208639353    8.60374474942561    3.33757336455267
C        12.62356209150170    7.21248475623445    4.61199327592360
C        13.06295877468123    6.97054340513095    5.90836295543574
H        13.57554658351683    6.04558898784262    6.12752158331472
C        12.86382985948313    7.89036853423418    6.92501365648539
C        10.99351405977410   10.61460968857668    5.03921879948103
H        11.58863249405720   11.48772974326288    5.30348861963437
H        10.06651307319256   10.65011902044933    5.61272324068914
H        10.74529915928177   10.67539976706215    3.98419880869335
C        12.86848208492636    6.20185067778669    3.53661295588127
H        12.54313582364915    5.21385078295552    3.85713915383801
H        13.93366232866360    6.14290139352251    3.31664685759339
H        12.34519919701875    6.46613780085536    2.62189551613271
C        13.34030716664925    7.62503168122888    8.32085539984104
H        14.01002179003951    8.41614581452260    8.65633434873705
H        13.87260791655582    6.67972665085864    8.36915434951450
H        12.49731778464885    7.58353943802139    9.01213456752001
C         6.60347502750813    9.17240157552371    6.44770612618752
C         6.58369601189270   10.13985394759022    5.45446570451840
H         5.99792318665470   11.03460579821636    5.60487436954600
C         7.29448431495258    9.98112301251078    4.27246471199345
C         8.04749790685718    8.82754015074642    4.09384477939851
H         8.60406206091140    8.69459826802347    3.17839062271717
C         8.10035698743382    7.83927548584313    5.06313241547099
C         7.36450575536292    8.02459324632606    6.23349310647097
C         5.84129905361976    9.35053234816934    7.72549477918269
H         6.52227619996817    9.36621649310650    8.57759713744861
H         5.13861106806913    8.53116706847611    7.87325396110095
H         5.28458058374335   10.28278725430565    7.71116285214232
C         7.23580749760864   11.02164337625458    3.19994888000233
H         6.96540379334945   11.99183123749056    3.60851779665600
H         6.48342443037449   10.74608387851391    2.46074685419711
H         8.18974700665126   11.10671419146549    2.68473369058271
C         8.93600629781202    6.60999485935466    4.87922192583748
H         9.72460471756491    6.57457999727821    5.63181559571164
H         9.40112227783172    6.60811506370441    3.89849257399902
H         8.33257849534604    5.70848749409393    4.97832117127338
C         8.31667521022237    7.05151954515442    8.25600409532831
C         6.65012976705931    5.90373187357017    7.31385032433756
H         5.87785390564457    5.69646436206014    6.60243578596836
C         7.07128815218690    5.20722552995224    8.39887637987730
H         6.73842545671639    4.27565828895225    8.80734548326804
C        10.57511781211440    4.60544768048929    8.53561000606693
H         9.86390162680565    4.00614637993716    7.96761760865495
H        11.51765114136571    4.06808408994592    8.58153072215647
H        10.73431021315009    5.53946209106605    7.99495816103084
C        11.06526422660024    4.30192830885179   13.52769572275777
H        10.54990210420185    3.47289058026606   14.01190141639086
H        11.14183340751558    5.11033646527322   14.25195388269670
H        12.06525877315274    3.97248567794161   13.25930637248117
C         7.04323434351633    6.53750121647265   11.53422671796440
H         7.07771192929424    7.49751825062420   11.01844340712364
H         6.83464002960213    6.71701748719888   12.58465161377695
H         6.21995264287991    5.95989509169354   11.11458308298885
C         8.84036627041621    5.52947124564939   10.10068321672724
C        10.05826173604012    4.87715008108347    9.91624324069182
C        10.77205384097074    4.49222619953379   11.04125516500845
H        11.71479408840106    3.98102354844654   10.91418671392497
C        10.29903163170975    4.74325417209709   12.32152333384982
C         9.08657227847003    5.40621393231976   12.46960608605855
H         8.71399601875094    5.61028455602737   13.46236185515995
C         8.34280095202734    5.80960463040152   11.37293716860540
Cu        9.60778063526313    8.49013099378313    8.50219923738290
N        10.98571727405593   11.04527474038454    9.26643183822015
N        11.95091282597403   10.02743772473607    7.64777619874732
N         7.42458233491014    7.02613700763696    7.24562871378450
N         8.09070539244945    5.92490724455266    8.95742244020281

