44
CSD_code = TAQVEN | q = 0 | S = 0 | Stoichiometry = C19H20N2NiO2 | MND = 4
Ni        0.40052619968690    4.66085021752575   10.77750002559626
O         0.21613395717591    3.28094984402742   11.99807125700193
N         0.65825224886542    5.91305521851620   12.22130843774985
C         0.65273823640463    3.16125393679695   13.19147729007775
C         0.66571044992022    1.86738233120411   13.80359251306088
C         1.15578755167291    1.72298339023303   15.07329015511216
H         1.18046846301478    0.73833199187578   15.51982094268257
C         1.63094721091897    2.81618675755613   15.81402828206899
H         2.01466968417368    2.65860830670633   16.81042827861161
C         1.59716714337592    4.06840361767138   15.27035521257984
H         1.95021373079572    4.92291540664308   15.83087482035254
C         1.11237081194247    4.26952333332937   13.96195402315188
C         0.14948909754798    0.72133600417889   12.99287869978719
H         0.25590120366940   -0.21944272435214   13.52659946301423
H         0.68913240789487    0.66839118619202   12.04860926265663
H        -0.90007235277902    0.88292253008363   12.75027258086874
C         1.00686783098373    5.57180559041085   13.42636705571547
H         1.20921636633376    6.37756766773594   14.13710710666667
C         0.50082350012578    7.34921146603370   12.03015702506027
H         1.49209334555517    7.81693334298280   11.95371864452111
H        -0.00952553324688    7.77809862751361   12.90213091631891
C        -0.30210675545891    7.66794043680037   10.77743603052217
H        -0.56876737023596    8.72589608782709   10.77741853985305
H        -1.22103666961184    7.07266747804824   10.77733917482606
O         0.21565688315154    3.28110876294069    9.55683162788338
N         0.65844301771197    5.91306517553557    9.33372059901541
C         0.65244393792463    3.16131218272870    8.36350302622637
C         0.66518103290704    1.86745037555644    7.75136512872964
C         1.15548436489608    1.72294189726869    6.48176628379992
H         1.17998917795044    0.73829296720105    6.03522192529463
C         1.63107194257645    2.81603307391718    5.74113725861932
H         2.01493434617479    2.65837311246768    4.74480413068925
C         1.59748894680148    4.06825588027057    6.28481376030099
H         1.95083682530701    4.92268913944065    5.72436534261159
C         1.11249402552528    4.26947804793731    7.59312378929461
C         0.14842037053526    0.72154328479587    8.56192361480250
H         0.25542457781705   -0.21936379901010    8.02855483617651
H         0.68720662532646    0.66895743597717    9.50669280100719
H        -0.90138423145985    0.88302238262147    8.80354385058960
C         1.00715252231520    5.57177856879871    8.12870255897338
H         1.20969207746163    6.37751495862483    7.41798823427775
C         0.50107360061219    7.34922352939981    9.52487013258731
H         1.49235687173820    7.81688058066009    9.60153137323016
H        -0.00906767399685    7.77817039732515    8.65280398803354

