35
CSD_code = TAQWIR | q = 0 | S = 0 | Stoichiometry = C6H12N6NiO10 | MND = 6
Ni        0.00004097314959    6.02852943230228    8.03578313100964
O         0.07673704054871    3.76694218386682   10.24007612306842
O        -0.00021723087985    6.02845309966729   14.15788404633267
N         0.00007250213281    6.02850752051534   10.13619356142363
N         0.01292487431579    4.88931136212080   12.18575955480141
C         0.03136098016799    4.85713996994498   10.80443073364447
C        -0.00012377841515    6.02846829479544   12.95832653825474
O         1.64897969205105    7.76497639241579    8.03650213330224
H         0.03048345268917    3.99753358786731   12.66507374688439
H         1.37749888650871    8.27664316240018    8.81103540299085
N        -0.01305018248715    7.16764728720684   12.18578925952476
C        -0.03129552003240    7.19985601510793   10.80445822385655
O        -0.07657987402293    8.29006985533244   10.24012881076532
H        -0.03067381014713    8.05941536413262   12.66512031763014
N         0.00004189611402    6.02852000639280    5.93567998340328
C        -0.03059282715298    7.19994062359200    5.26746085229981
O        -0.07527935606798    8.29011034566143    5.83188204134206
N        -0.01220213244528    7.16768778710226    3.88613013393647
C        -0.00010694558447    6.02848377467038    3.11361543459290
O        -0.00016613000119    6.02846821437281    1.91406133829849
N         0.01207504556990    4.88929903440671    3.88615607453758
C         0.03058454051982    4.85708736350542    5.26748009284074
O         0.07533573959577    3.76692349961504    5.83191708006104
H         0.02899353785721    3.99753385165310    3.40678740460060
H        -0.02915471087164    8.05944353609915    3.40674615912883
H         1.37830076869480    8.27638013656496    7.26148311098714
O        -1.64883533281689    4.29198884519689    8.03651113121694
H        -1.37729307730897    3.78029882034700    8.81100782157309
H        -1.37827813637974    3.78061447026858    7.26143786458324
O         1.31084534207789    4.61509639029515    8.03573283398913
H         1.07033053102309    4.07093660104027    7.25330721494518
H         1.07036824810540    4.07142081406700    8.81847041670165
O        -1.31072589832185    7.44198620209852    8.03576663491396
H        -1.07022556434178    7.98613030473197    7.25332334616823
H        -1.07017354384429    7.98565585064246    8.81848144639082

