62
CSD_code = TAQZEQ | q = 1 | S = 0 | Stoichiometry = C22H35CrN2O2(1+) | MND = 9
Cr        2.06112441853571   13.42235840511028   18.79117566372626
C         2.50056858604427   13.43136773079257   16.61636013386312
C         2.37065486231062   14.52193739766020   15.59987268432265
H         1.37329686305079   14.95880888002296   15.60772188595538
H         2.54609345619845   14.11398222780440   14.60274888874839
H         3.09465089764899   15.31845547204985   15.76288086650176
C         3.69005861318709   13.04787107932307   17.29225434651850
C         5.05098662855477   13.65137442490501   17.12438782012409
H         5.58826041910629   13.69411558124712   18.07128111162706
H         4.99910149034712   14.65502296958416   16.70765649849541
H         5.63860007148038   13.04096025996751   16.43641604280989
C         3.42790225205941   11.83752142262759   17.98975412632016
C         4.47068229258396   10.97844931334287   18.63170828403679
H         5.22270247365080   11.57725885746434   19.14215804044718
H         4.97602809960718   10.39038352532612   17.86313519858648
H         4.03187850809492   10.28642419790771   19.34674088259476
C         2.07141767125044   11.46560740638633   17.74181320691645
C         1.44399124249427   10.15800401207840   18.11231369200654
H         0.36437978111614   10.25134612803574   18.20534634644664
H         1.83683404457345    9.78319593827362   19.05551114283232
H         1.65323221793597    9.41565022257447   17.34020656583404
C         1.50207478065515   12.44837900314246   16.89116026370271
C         0.15873675719060   12.37388113041394   16.24188947317766
H        -0.55392567385745   11.84161734099208   16.86809707285776
H         0.23697707418344   11.84027933523634   15.29301550968200
H        -0.23959076030947   13.36538430639041   16.03631156800672
C         2.75496205045160   15.27139670272647   19.21019177353821
H         3.38223910041279   15.64660087138127   18.39989646058864
N         2.73618714235357   16.14025241263112   20.20717228616449
C         3.45170524576891   17.42002647971855   20.09523415645114
H         3.25697733170102   17.97243280805485   21.01496591935672
C         2.91921962871882   18.24245072445991   18.92214879347467
H         1.83452303936480   18.30287613747803   18.95700147785046
H         3.21112342841028   17.81583821583831   17.96583041919966
H         3.32071763211771   19.25026524287654   18.97562903920674
C         4.95868307260011   17.19055771014661   19.98740553155547
H         5.31631807313980   16.59282313469299   20.82170200032957
H         5.47008564010115   18.14863390432642   20.00731332701047
H         5.22387696621666   16.68694003272568   19.06173375522115
C         1.96026353336738   15.90549286195197   21.42222490049400
H         1.48697733437765   14.92456818001700   21.30145175485151
C         0.85700290074904   16.94928605679459   21.60096677361206
H         0.23675234922758   17.00387441257532   20.71025204287567
H         1.25712055307730   17.93665208150128   21.81302302189177
H         0.22448100482100   16.65716788270789   22.43403519160312
C         2.88377000233570   15.84025924144366   22.63970978359066
H         3.67289772577598   15.11117100592036   22.47342252477358
H         2.30796331692158   15.54042999284313   23.51019582180761
H         3.33571499290863   16.80390714280907   22.85628763952164
C         1.11611102478249   14.97724887637579   18.63171871050087
O         0.38089425763424   15.86649690278786   18.45331458189052
C         0.44328765975222   13.33319133892542   19.63307234981973
O        -0.59013059467882   13.33491024281217   20.13769486721401
C         2.64063176834225   12.82007830824448   20.52365677834268
N         2.93387308574280   12.35487914911919   21.54828974369680
C         3.10195930084192   11.79970140771113   22.82165403356068
H         3.87795957010875   12.36720058673637   23.34499363550849
H         3.44849358498434   10.76917385186876   22.69794735361875
C         1.78910607302771   11.83374923480053   23.59918153707057
H         1.93887617346005   11.38858873633599   24.57808430498322
H         1.01940169519491   11.27476097589339   23.07355335450269
H         1.44705726829002   12.85728058244924   23.72792703818557

