38
CSD_code = TARFAT | q = 0 | S = 0 | Stoichiometry = C13H22Cl2Pt | MND = 6
Pt        2.35643605148042    1.25230501510224    2.69478258803732
Cl        4.04502412302644    2.40100983328827    1.74198705191402
Cl        0.95276254530868    2.94974933363205    2.20413457268560
C         3.16347933810961   -0.84692277111532    2.64181956097696
C         3.06019598918775   -0.37061249630190    3.95308067765116
C         1.63885575485020   -0.11800694710156    4.22863664616894
C         0.92049903947462   -0.44238996512001    3.07239204214802
C         1.79166041635195   -1.27770331544107    2.13705312142536
C         4.44076284992999   -1.28532765244907    2.00620659737548
C         4.22179684572064   -0.26876981124618    4.88995076202671
C         1.02513291009585    0.35404335193433    5.52147133827489
C         1.24316161086221   -0.68424787723442    6.62619597789678
C         1.53280413357416    1.73943114518841    5.93611851708807
C        -0.56664082541137   -0.38240138061036    2.93407182881838
C         1.56910848419314   -0.95855774292094    0.65533621866235
C         1.57270289302061   -2.77598668870969    2.39500383702505
H         4.28872653898461   -1.55637909682648    0.96567680414369
H         4.84806719102033   -2.14775029343664    2.53768697050229
H         5.17845631700986   -0.48490305267535    2.04377081443244
H         4.00801811176828    0.35918975296764    5.74773942747223
H         5.08559318648252    0.14186726596640    4.36982932818572
H         4.48673101642650   -1.26700104638256    5.24316715100780
H        -0.05289175354492    0.43893386121725    5.35176312574395
H         0.73390606796024   -0.36574971631618    7.53238475433172
H         2.29831948785196   -0.80751079626759    6.85174716589944
H         0.84008133054597   -1.64959164564575    6.32669122394727
H         1.53298609100585    2.41316675075249    5.07590193393920
H         2.53833120555378    1.69829688206803    6.34515876949682
H         0.87835725701120    2.15912550999895    6.69621086736687
H        -0.86561306726908   -0.56431462860026    1.90590909397983
H        -0.94066460633610    0.59812327900072    3.22290858405370
H        -1.03737576207400   -1.13495517156226    3.56965415744726
H         2.26611171567395   -1.51930824969955    0.03797813818204
H         1.71559569216047    0.10996408429706    0.46403496566753
H         0.56078556437564   -1.23031753612021    0.35386537864334
H         2.26690329288500   -3.36329657899945    1.79894443394219
H         0.55814076516246   -3.05697023043876    2.12367483087814
H         1.73069219757667   -3.00843137419330    3.44636074255360

