37
CSD_code = TARHIF | q = 0 | S = 0 | Stoichiometry = C12H14Cl2N6NiS2 | MND = 6
Ni        3.26283455787607   -0.69997574859173    4.17302243419755
S         1.63517119909144   -3.04211022617586    0.89929424285857
N         2.23749026995996   -1.80996887692498    3.10255538347425
C         2.62412286615447   -2.00683245255266    1.90703792303251
C         1.00483083524120   -2.45020513590486    3.46112323749278
H         0.26323124895097   -1.66344217859841    3.64144792484024
H         1.16188566962542   -2.99961135937486    4.39363949995225
C         0.56101256088526   -3.39689532922224    2.33006307993296
H        -0.47206581868820   -3.23473487087151    2.03036245147648
H         0.70191240014758   -4.44531596580672    2.59127739994738
Cl        2.12090425713253    1.00227928401128    3.49828734327946
N         3.76467511970601   -1.44221520290060    1.40579604376701
N         4.51160891053364   -0.64792360668686    2.18731210994893
C         4.30070062601781   -1.57010918589162    0.16384157791851
H         3.82993616633004   -2.17051469813738   -0.58808051491761
C         5.52597863531280   -0.26753204813221    1.44848668686797
H         6.28552379498074    0.37966965037180    1.84080031418533
C         5.44390498119163   -0.82106574327517    0.15488685076696
H         6.12955663488377   -0.68274868764585   -0.65487788342080
S         4.89028918427213    1.64255924931765    7.44668414081902
N         4.28788736325820    0.41061727688000    5.24334093282950
C         3.90115489917633    0.60758400231766    6.43880061186477
C         5.52070521658033    1.05060737206465    4.88488849775190
H         6.26215095311702    0.26372478188786    4.70445568780179
H         5.36376144194908    1.60015426465168    3.95244031618362
C         5.96477623600233    1.99702495068578    6.01608412975450
H         6.99773933420018    1.83439658037765    6.31594514107641
H         5.82437308707677    3.04552205874284    5.75491195670374
Cl        4.40468558297436   -2.40212938355088    4.84773962146004
N         2.76049473363998    0.04312949870956    6.93997554288077
N         2.01371166462442   -0.75137736342605    6.15853467124107
C         2.22417050116932    0.17145022310099    8.18175696561323
H         2.69478747257345    0.77205947244304    8.93360665480987
C         0.99898793474402   -1.13124664005484    6.89713970407412
H         0.23948216877998   -1.77849369136616    6.50482713530302
C         1.08087078156867   -0.57744678192959    8.19064307242976
H         0.39495652896041   -0.71538348854152    9.00024911180217

