43
CSD_code = TARHOJ | q = 0 | S = 0 | Stoichiometry = C21H17FeO3P | MND = 7
Fe        0.61878598727916    4.68444442798835    8.28725686462924
P         0.75684293568519    5.04937119730021    3.68594816921817
O         1.71338529232019    3.56255842981259   10.73753062162658
O        -1.98696064581865    4.69116868872810    9.57763147596106
O         1.32796508633002    7.49535709687494    8.69094301366375
C         1.28836513816331    3.96763243671754    9.75320455149423
C        -0.97029946742703    4.66085662449295    9.04949727079234
C         1.05887417339825    6.39651783584130    8.52514489078772
C         0.97499584195328    5.75016046418250    5.42963232386943
C        -0.06359919286593    5.07155030485607    6.29924139660978
C         0.09413459801152    3.65592491664457    6.46899398141813
C         1.39000807478071    3.26737489085731    6.83515485854242
C         2.31083353761077    4.34617121148895    7.01164622829713
C         2.38465318345835    5.40446009175256    5.92611048051837
C         1.43282082752174    6.40117509130771    2.64856074231758
C         1.01823528848865    6.42318388612457    1.31739730426694
C         1.50993358257486    7.37101926784327    0.44222489624514
C         2.43680637516399    8.30358216773401    0.88085446997820
C         2.87118721186601    8.27409812678490    2.19428303623671
C         2.37960075933988    7.32496077001279    3.07449503611477
C        -1.02482218309258    5.44323067582785    3.46383329007552
C        -1.91953253166698    4.38507712375868    3.35788749731039
C        -3.27418458700767    4.62531819412352    3.21018318242721
C        -3.74276957039330    5.92724116950648    3.16563265758484
C        -2.85489091424983    6.98680699116598    3.26702249601719
C        -1.50132287579348    6.74923524274657    3.41431026902506
H         0.79949790390848    6.83126756179111    5.41086043219872
H        -1.07612700347468    5.41840081519103    6.09777492433588
H        -0.71766111531840    2.94736082667825    6.35206564229206
H         1.64937276293839    2.23366125316394    7.03408222360808
H         3.29519345928162    4.07567337910301    7.39043493199381
H         2.99365620948261    5.01004516903088    5.10040876494767
H         2.89577509901064    6.28752625127594    6.31578617106225
H         0.29533439099039    5.69249817847785    0.97811807210348
H         1.17256470348868    7.38361557669318   -0.58406075730529
H         2.82187052092728    9.04741096366477    0.19906490485159
H         3.59941030719769    8.99439323422498    2.53882275766659
H         2.73682802687965    7.31411863897146    4.09297946099003
H        -1.54337555565429    3.37133352754100    3.39030568343687
H        -3.96421619056438    3.79805053632010    3.12726451488104
H        -4.79940750267115    6.11830320753027    3.04883307983372
H        -3.22061907460030    8.00291322584378    3.23016348310373
H        -0.81094286745131    7.57865033002356    3.48507470497183

