80
CSD_code = TARKUS | q = 0 | S = 0 | Stoichiometry = C25H47ClN2OOsP2S | MND = 6
Os        3.22724542887880    3.47123255412655    1.64252028537315
P         3.21165968335461    5.90918926049438    1.44593405863689
N         4.13470747223033    3.47135661474095    3.07338742203806
N         0.80390005364979    3.47127417352656    3.39699831343943
S         0.84337101510525    3.47132585303108    0.61291425920252
Cl        4.46798744038675    3.47161209486084   -0.45126139862752
O         4.81128287409581    3.47112944043460    4.04025271826816
C         1.27224807262600    3.47130116692431    2.23863396734665
C         2.23392195356766    6.60202755074294    0.00758924134818
H         1.19743353020449    6.32230090115201    0.23959175458960
C         2.46807548833969    6.82984275053084    2.89854847640683
H         2.83687022381272    7.85932473599277    2.85228637833766
C         4.93064428321661    6.63481687615721    1.22774097915235
H         5.05273452399580    6.67970592926570    0.13781760427067
C         2.60024091191681    5.95428951560618   -1.32422344924265
H         2.38502243155469    4.88889181626361   -1.31406329755362
H         3.65426386878077    6.08433265792536   -1.56124976320095
H         2.01080000168837    6.40505213265010   -2.12139152724865
C         2.32515788018106    8.12157367020206   -0.12592716496611
H         2.11653636357444    8.63696784291225    0.80821727952908
H         1.59158124383350    8.45386979785993   -0.85962945576004
H         3.30784464592734    8.41760731761296   -0.48604111356719
C         0.94130566682432    6.85848321892813    2.87351050922710
H         0.55525933646983    7.49336047913035    2.08035541052743
H         0.57587149735186    7.24986562408059    3.82178280330589
H         0.53139823511806    5.86053221911017    2.75148913628071
C         2.95400932139460    6.19078820424955    4.19662960009975
H         4.03926284082441    6.10747947158281    4.21798321169338
H         2.52283175120889    5.19593924906716    4.30515855441599
H         2.64356365436413    6.79252673831325    5.04938425743735
C         6.00597445151304    5.69562594543877    1.77363653177437
H         5.93956154219071    4.71764517473189    1.30151458795110
H         5.92170638815753    5.57753950645321    2.85241599440324
H         6.99233664416301    6.10259128939654    1.55616707546560
C         5.14767393998143    8.02870423282606    1.81382162047789
H         4.41222337794997    8.75125464110652    1.47367395918983
H         6.12942309282034    8.38593795929225    1.50479489439623
H         5.13619866453701    7.99704629127258    2.90113332310712
C        -0.51015088406126    3.47125033347939    3.83952656545908
C        -1.61652330605995    3.47125428659036    2.98936244874863
H        -1.46916542606665    3.47126075095949    1.91955747084307
C        -2.89092883752536    3.47126212239677    3.52102426916742
H        -3.74494034577099    3.47127061348012    2.85874241547367
C        -3.07928535577394    3.47127190983153    4.89357299435672
H        -4.07899326141978    3.47126021140235    5.30256460495163
C        -1.98171260079651    3.47126391963185    5.74019774213017
H        -2.12620265279835    3.47124497933567    6.81116980212534
C        -0.70297962535471    3.47124692340924    5.22103004291336
H         0.16269995629840    3.47123681906365    5.86573005683035
P         3.21170772827115    1.03299675509615    1.44603395183262
C         2.23386680382914    0.34049649654139    0.00760593350549
H         1.19736944330410    0.62018833788894    0.23962278282160
C         2.60013545039107    0.98820767148662   -1.32423138578434
H         2.38492717775789    2.05360259034128   -1.31401567890276
H         3.65416622931164    0.85817928324710   -1.56123223719363
H         2.01070049438997    0.53750087945268   -2.12143743257186
C         2.32514709557383   -1.17902892060604   -0.12592270122291
H         2.11652377602937   -1.69442305113670    0.80821914364255
H         1.59157301368961   -1.51132053222353   -0.85963165944855
H         3.30784515723790   -1.47504914798575   -0.48601749985759
C         2.46800554455417    0.11257510652572    2.89868574120852
H         2.83683319532431   -0.91687930427255    2.85234730662892
C         0.94124327356840    0.08393845107988    2.87359304599425
H         0.55523935722422   -0.55091408909579    2.08039618672910
H         0.57579251799335   -0.30748056634544    3.82184425205696
H         0.53134971998850    1.08190053941118    2.75157465327586
C         2.95400873812660    0.75165159213672    4.19672311370884
H         4.03926574773706    0.83495792154498    4.21803834012307
H         2.52283133721232    1.74650181260643    4.30526798955162
H         2.64358942294354    0.14989672225666    5.04947164337892
C         4.93076715106798    0.30768321191365    1.22771511330987
H         5.05283801295874    0.26284677229197    0.13778183751958
C         6.00598587710597    1.24690461344728    1.77376570557614
H         5.93954899026425    2.22490414316879    1.30169579378673
H         5.92164559425235    1.36492993428020    2.85254855809530
H         6.99237223463446    0.84000120864779    1.55632193913564
C         5.14768019819408   -1.08620034483728    1.81381980891723
H         4.41223998325668   -1.80875333992579    1.47365163303532
H         6.12942506745547   -1.44338797197672    1.50475169901632
H         5.13622820986046   -1.05459454255027    2.90113697159611

