93
CSD_code = TARKOP | q = 0 | S = 0 | Stoichiometry = C35H53CoN2O2 | MND = 4
Co       10.38929009142548    2.15851076075633    4.19480070667283
O        10.05848761443625    0.59005230687737    4.56712205914279
N        11.47287128105208    3.43795245200608    4.84243241847653
C        13.55664897932220    5.09962762127328    6.25725558923765
H        13.17411483492561    4.58866928752026    7.13405090491143
H        14.22107102723784    5.89352463306119    6.59705264406028
H        14.14627950483601    4.39725129948143    5.67915508558708
C        12.43357294030028    5.72871780878597    5.42985047289117
C        11.42246318253641    4.75747515510145    4.79498984007171
C        10.39564379513283    5.36264150712339    4.07464834273301
H        10.38985852358073    6.43454410779107    4.05234030567916
C        11.68710810729409    6.69657249320093    6.36313068864560
H        10.95712754297797    7.30235421023665    5.83534142986883
H        12.40021824944290    7.36972863730742    6.83439484247450
H        11.17095769639392    6.14566466289116    7.14595249957486
C        13.09976826484087    6.51109532070715    4.28477796733526
H        13.59512237010095    5.82617258829831    3.60040397827507
H        13.84500348335235    7.19346043913253    4.68840417176156
H        12.38203093269704    7.09434430699044    3.71608908562045
C        12.36027636466468    2.63193427956856    5.59158716440005
C        12.08024255123432    2.38026792927076    6.95231602244846
C        12.91908236697891    1.53615123593075    7.66076534853179
H        12.70701238304818    1.31791747288652    8.69572704060364
C        14.02784042275891    0.96587666083538    7.06306469583438
H        14.67470040602618    0.31625000223908    7.63355367638289
C        14.29969298960416    1.21936176781793    5.73307662787636
H        15.16435107056957    0.76367578549968    5.27564091573147
C        13.47948959484161    2.04058795065006    4.97304079603702
C        10.85652954893146    2.97435809380744    7.61606813050577
H        10.49962293975855    3.81221061045484    7.00770418068796
C         9.74901071785263    1.91771484308244    7.65373886749773
H         9.54773737463915    1.55349772189011    6.64524215337920
H         8.83460173099434    2.33951282129155    8.06596263700583
H        10.05169041941034    1.07101494595460    8.26533731127765
C        11.13309640796500    3.50251366292411    9.02565930920901
H        11.33179677429522    2.69033678384457    9.71972568827191
H        10.26322155679378    4.04594962667385    9.38967782146147
H        11.98685894678021    4.17736398310747    9.03531951698835
C        13.79577649584047    2.26162225894282    3.51011194960129
H        13.00389988235036    2.87831849164511    3.06759727218294
C        13.81780168304686    0.92376874704348    2.76567620771101
H        14.62746522404190    0.29151897693789    3.12120257841219
H        13.95847529923169    1.09304326258753    1.70060092822816
H        12.87546086525392    0.40223185702005    2.91289748530115
C        15.13459162779732    2.98275705586651    3.32558671973386
H        15.12921947644410    3.96354803047905    3.79651772770649
H        15.33745824422092    3.11660229124505    2.26500005481611
H        15.94760927051428    2.40392411225475    3.75749552418344
O        10.65405668937905    0.54357980465726    3.35662151347748
N         9.35718466503231    3.39134296127779    3.33030101746407
C         7.24442389857358    5.03237862674404    1.88393314930963
H         7.62974341641490    4.50535852855344    1.01849308463253
H         6.58895904711098    5.82688116486578    1.52785352487790
H         6.64416707384234    4.34266880328360    2.46508520086636
C         8.36337229857462    5.66678318265523    2.71331676581134
C         9.38047132672927    4.71204458785210    3.36921042457676
C         9.11610540797967    6.62617007839968    1.77431436664406
H         9.77808119348220    7.29951038452548    2.30999217729073
H         8.40102772549742    7.23497517788412    1.22507380405826
H         9.70967881952217    6.06442240924194    1.05765972177293
C         7.68493048093567    6.46115380477463    3.84346465693311
H         7.17813965661401    5.78373692078211    4.52681277569123
H         6.94737908994757    7.14201654701097    3.42360004418190
H         8.39541553224896    7.04760799983460    4.41791477151393
C         8.47649331711184    2.59953811780255    2.54978037464614
C         8.79872707657621    2.33101958781489    1.20604225879497
C         7.95019237035103    1.52198000538902    0.46610383121397
H         8.19177434164944    1.29694347349493   -0.56117774815572
C         6.80110552078815    0.99380152307990    1.02133065960106
H         6.14828693842864    0.37170386565212    0.42718669648825
C         6.50048973115014    1.24698039981226    2.34509731175694
H         5.61038669188788    0.81450868744186    2.77585381887243
C         7.32634627033511    2.03563129975432    3.13281092169726
C        10.06793129074670    2.85663065503924    0.57325391962247
H        10.54363259243821    3.55737412859581    1.26730422896739
C        11.03261035337155    1.68967787682792    0.34503340741519
H        11.16738518362551    1.13762573889860    1.27083846072860
H        11.99738304346112    2.05915074140366    0.00391218301033
H        10.63775225727406    1.00869390288454   -0.40490700775431
C         9.81085017803626    3.58983357086182   -0.74633928910787
H         9.41977433596691    2.91212175962162   -1.50064896738862
H        10.74365420103915    4.00688841670869   -1.12120300778520
H         9.09936493034824    4.40330483473265   -0.62056800822383
C         6.98033693375110    2.23764639521530    4.59310216759557
H         7.77193860276833    2.83686142255584    5.06237053733562
C         6.92576046721105    0.88469127900520    5.30965910078961
H         6.09283871993129    0.28728269868106    4.94813428641939
H         6.80198271365355    1.03239812509082    6.38041887305119
H         7.84650408771027    0.33393753163942    5.13734359540106
C         5.64757102672354    2.96999415428986    4.77483566206060
H         5.67520079929457    3.96718780285355    4.34157488877478
H         5.42273336180059    3.06721890412964    5.83517084431794
H         4.83710528415571    2.41855125731919    4.30435161574681

