42
CSD_code = TARLOP | q = 1 | S = 0 | Stoichiometry = C12H22CdN5O2(1+) | MND = 6
Cd       -3.21297237415981   10.92682083339881   18.86552889220143
O        -5.27147320500127   10.29123183660172   18.62665176315404
O        -3.66140462976277    9.52556337643075   17.35861067301002
N        -2.38634705022861   12.54734866529068   20.40403868049686
N        -0.93702635162219   10.94589964325590   18.48194569176863
H        -0.59571005986138   10.00810362454693   18.28080640807306
H        -0.72073286225957   11.51548414809156   17.66465310427977
N        -3.44439485215594    9.88081978317026   20.92777938418280
H        -4.28765979220077    9.31754858174983   20.82139157518213
H        -2.72941436223580    9.27953504918673   21.33834450978110
N        -4.01681247468753   12.94785507544113   18.04254943052863
H        -3.99149629177745   13.08983089928359   17.03372988498856
H        -5.00226660267471   12.85855972404313   18.29862086226723
N        -8.10135427852638    7.93751956373201   16.72999603944885
C        -0.97068305757484   12.78274101324151   20.10617697449691
H        -0.44799258418809   13.20523261120329   20.97361683895310
H        -0.89920995467614   13.50347110664431   19.29108323433410
C        -0.26696514620243   11.49631453743205   19.66291125895878
H         0.78858446126651   11.72661660538654   19.47126047654696
H        -0.31077498042563   10.74706833678233   20.45729481018545
C        -2.56459093077232   12.00806186096995   21.75754598171130
H        -2.73337650094143   12.81472353731116   22.48113015313366
H        -1.65167991863126   11.48540000831305   22.05022141927589
C        -3.72227864458565   11.00905789305869   21.82334425476220
H        -3.85183566341009   10.68926556768689   22.86519618532702
H        -4.65121739629972   11.47949291080798   21.48703313545322
C        -3.19571616553289   13.75532554818764   20.21360643621220
H        -2.73320201231013   14.61932218948898   20.71049613332113
H        -4.17112411912899   13.57734604514490   20.67231601248648
C        -3.42443903515146   14.09344927284241   18.73617388593467
H        -4.06493087117176   14.98385122031889   18.68842207420752
H        -2.47927015104849   14.34019849569578   18.24510569914095
C        -4.88007872276532    9.55058767818827   17.68500050518623
C        -7.19599895060568    8.67653896178342   17.33743184495289
H        -7.54131719342240    9.28134134183132   18.16568590869568
C        -5.85312500332907    8.70187970316288   16.95935245175374
C        -5.45574425691108    7.90487055365563   15.88669390857740
H        -4.42156874053716    7.90819075735083   15.57587640793252
C        -6.40831116389442    7.13056928633036   15.25006378651482
H        -6.14585781684226    6.50043431857635   14.41542910192895
C        -7.71792410660301    7.18411693974723   15.71252980544385
H        -8.49930618710649    6.59781089465543   15.24825441519213

