60
CSD_code = TARMIK | q = 0 | S = 0 | Stoichiometry = C19H31N5S4Zn | MND = 5
Zn       10.02474999656524    2.83399287403641    5.82819104782580
S        12.50326186664610    2.69882413224212    5.57308863673678
S        10.69144902709612    0.42234925575946    6.00263148735139
S         7.57277745318774    2.84910202755998    5.36726525571727
S         9.37681724757542    5.16267425013226    5.16084763196717
N        13.28889615257832    0.18113010806032    5.61671153766227
N        15.37922826598561   -1.23319641717357    6.89678054180896
N         6.81598887015512    5.23526277012127    4.53574698759627
N         4.65988669135993    6.96761711122519    5.13191624816270
N         9.94594952510460    3.19124869642047    7.96665716851941
C        12.26231189025869    1.01877465786151    5.72767669986700
C        13.19042993787366   -1.24386406383065    5.83151981800561
H        13.61378247189864   -1.75179598033359    4.95942938076954
H        12.14414941554975   -1.52453147020256    5.94803449161084
C        13.99360496386502   -1.62627734341243    7.07457894667717
H        13.53799715803251   -1.14380393269458    7.95880452639563
H        13.94692277472206   -2.70885813882860    7.20885836325064
C        14.66198728405307    0.60573829557237    5.47009888889505
H        14.69665310367733    1.68470395047779    5.32339485463137
H        15.08400666206942    0.10090420749794    4.59549185055598
C        15.45546399968926    0.20448599495140    6.71294524214277
H        16.49668380032114    0.49313639745006    6.57154514196769
H        15.05482949228823    0.74854073371566    7.58847586007800
C        16.23527114795012   -1.71571525791573    7.96783886217833
H        15.95686414761809   -2.75559804375993    8.15729565727925
H        16.07490973524062   -1.14880255702791    8.90213822090127
C        17.70938154815223   -1.67259039444873    7.58131000477489
H        18.29453710263464   -2.22488292957432    8.31201260561917
H        18.08645732635932   -0.65424140406813    7.54625804705128
H        17.84431212046701   -2.12907353429966    6.60479467571117
C         7.82215558848998    4.49107070758026    4.98477145173405
C         5.45135845046842    4.77062584619462    4.44023411375488
H         5.41367124658422    3.70290213226352    4.65345821986566
H         5.09779735850513    4.95582411925011    3.42112610557480
C         4.57805209207285    5.54834269915101    5.42398886660401
H         3.54553707794677    5.21818566747320    5.31262199164375
H         4.90959565236664    5.32556030612790    6.45528103908382
C         6.91715048816894    6.65326990165198    4.27970812599267
H         6.56150268936310    6.84370412870708    3.26234599678668
H         7.95626629949483    6.96786925559643    4.37060420577715
C         6.03423224013625    7.41218052562191    5.27025752917214
H         6.42029899495051    7.24926897158489    6.29328360841464
H         6.08581626221628    8.47969004372944    5.04686025528333
C         3.73277278501197    7.76378089071588    5.91885769146861
H         4.02032250665506    8.81081617927503    5.79371044190814
H         3.80178245689511    7.52222789474904    6.99434735472206
C         2.29490948894885    7.59702248145497    5.44036383974616
H         1.66281301186030    8.34240684449903    5.91597954347662
H         1.90141171055891    6.61415866406410    5.68442093451550
H         2.25048520964273    7.73306371058460    4.36347521760113
C         9.28372043017453    2.36184496380370    8.76388782071983
H         8.80063064591019    1.52420773137601    8.27943055792076
C         9.21093543898723    2.54621469468535   10.13397081357668
H         8.66162644719999    1.84764457069905   10.74509278471089
C         9.85492750220941    3.63862371725013   10.69352570745905
H         9.81971730563959    3.81304513592386   11.75894486887299
C        10.54493566718039    4.50246860762353    9.85749814013382
H        11.06062631159925    5.36540544863344   10.24822238682281
C        10.56327268750726    4.23920021622991    8.49859811152557
H        11.08531477414458    4.88351994785994    7.80429359350460

