72
CSD_code = TARNAB | q = 1 | S = 0 | Stoichiometry = C32H35AgPS3(1+) | MND = 4
Ag       -0.06338979121305    0.97310354308680    3.12224796430356
S        -1.17783267406252    1.68023662595893    5.72223216982594
S         2.79389949991501    0.59523321215747    2.85916957132568
S         0.20935369810603   -1.30124974892856    4.31638682243138
C        -0.20273248909869    0.37765205573937    6.58732733140162
H        -0.54043805381213    0.37343934710973    7.62555505853573
H         0.84422635332049    0.67965196652496    6.56071371537647
C        -0.41254722990363   -1.00559207316295    6.00467407240649
H         0.05992960153998   -1.75386450685839    6.64351784626319
H        -1.47880869912798   -1.22742871647865    5.93607434509441
C         2.01204924600940   -1.49067162808411    4.53980220363333
H         2.31220063604015   -2.15764110509052    3.72974354895460
H         2.15548802971921   -2.00710662196637    5.49004988389917
C         2.84816238981427   -0.22509712634926    4.50152980852014
H         2.52973503779595    0.50882071564751    5.24215556826394
H         3.89100109557505   -0.48956959150631    4.68869843971826
C         2.94724864131770    2.32935155953056    3.34996300469638
C         1.95147133739406    2.71103538177243    4.26385479514058
C         1.08351122332863    2.93150281148124    5.08717533061165
C        -0.02239008552974    3.05459754882380    5.94058205285698
C         3.86541124009416    3.14084586266238    2.80202949171937
C        -0.24971526752592    4.05084632425600    6.80953813145810
C         4.85883757485533    2.68593078013230    1.79247836392996
H         5.84820623030523    3.06701453450197    2.03948527023123
H         4.58844485231201    3.08179331340601    0.81320148511336
H         4.89476644586206    1.60216087693031    1.72359443380943
C         3.91388103716256    4.59056098000461    3.16238563485205
H         4.88990214141750    4.83865650687829    3.57780306880650
H         3.14602927076327    4.85030400852908    3.88683284568880
H         3.77766392451379    5.19403768100815    2.26510959157011
C         0.75038840084267    5.14623862542409    6.98924714733925
H         0.25955546769486    6.11409014255600    6.91242354292639
H         1.54659600537458    5.08705790055454    6.25172111158853
H         1.18969997645765    5.08037509848826    7.98505427084114
C        -1.47455685474225    4.14115360234339    7.64854413236452
H        -1.20577228653238    4.30943456278321    8.69042732662068
H        -2.08537650382430    3.24605830358067    7.57215742780993
H        -2.07298256488700    4.99198572853165    7.32337761943992
P        -0.73940067519570    2.94669914712865    1.79171585008531
C        -2.88750570461792    3.74474889595622    0.15194744080426
H        -2.54318861494435    4.75926177299239    0.29039461686545
C        -3.99347426253275    3.48514418012246   -0.63594105162360
H        -4.51029004397605    4.29998056092163   -1.11976107297743
C        -4.43952701034969    2.18326952321350   -0.80668158190009
H        -5.30305831164701    1.98775949118167   -1.42355807307606
C        -3.78222345478368    1.13320268545389   -0.18563205249360
H        -4.13292608044684    0.12098342040910   -0.31745410761107
C        -2.67661347719047    1.38725573803287    0.60511990664248
H        -2.14641635652196    0.57639472589414    1.10602718279919
C        -2.22570756424178    2.69198507000731    0.77690376632563
C         1.38427712869514    2.65968037121155    0.07351177935518
H         1.37926756223218    1.64227766031468    0.45391328068164
C         2.29366231963606    3.04736397742149   -0.89319569494023
H         3.00491595528279    2.33399128764837   -1.28173038654413
C         2.28478023744567    4.35043871729726   -1.36523332504544
H         2.99548539023666    4.65740440386578   -2.11739288764916
C         1.36055580068382    5.26006667105082   -0.87570262942726
H         1.35125747050341    6.27293123872521   -1.24922296805572
C         0.44399837936805    4.87592223184290    0.08664869999305
H        -0.27245562545643    5.59080479120043    0.46430693557498
C         0.45863672972265    3.57170302444319    0.57198613944881
C        -2.42412340379007    4.47194768163858    3.38205045325141
H        -3.17020668775234    3.73011538594787    3.13168121991375
C        -2.73017176987919    5.51134249421431    4.24067065156744
H        -3.72167072085383    5.58581650809461    4.66127125137189
C        -1.76816219277653    6.45767129581569    4.55649244608914
H        -2.01322894730990    7.27662990872294    5.21635979751869
C        -0.49234721585862    6.35495382503019    4.02515418358501
H         0.25812927875883    7.09072507192923    4.27352729112298
C        -0.17672002402447    5.31300875990168    3.17293893429543
H         0.82005783644801    5.22152173315266    2.76530466526156
C        -1.15042280201612    4.38024926744264    2.82641490927840

