75
CSD_code = TARQIN | q = 0 | S = 0 | Stoichiometry = C34H26Cl2F6N2O4Ti | MND = 6
Ti        2.36036176744941   -1.56354170324537   -4.71853734457582
Cl        0.75134453688612   -0.07122360920569   -5.06535070508036
O         1.92427832380464   -1.68696472666044   -2.99913091925140
O         1.16285305021637   -4.62976519248269  -10.25525396729943
N         0.94224169615941   -3.13151506461113   -4.91559657152118
F        -1.73952742313606   -4.92742152919756   -3.37648500402906
F        -0.24233338070668   -5.85609085984377   -4.59641739297366
F        -1.57097670248557   -4.38482692786935   -5.44060838780135
C         1.23091177488265   -1.88286365304597   -0.76730923520344
C         0.74723781926222   -2.67499831907378    0.27389312992978
H         0.25896505904169   -3.61324056176706    0.06570936425490
C         0.92588552288473   -2.27649414722801    1.58497370429707
H         0.55768182371235   -2.89755957315787    2.38753516166307
C         1.58293198655609   -1.08984887440858    1.87415163139049
H         1.71756633489181   -0.78464204778346    2.90148603086899
C         2.07048021038728   -0.29869359921596    0.84495534420844
H         2.58483551866271    0.62392161757491    1.06785024738375
C         1.90110725389654   -0.69324464077002   -0.46728915845784
H         2.27824680248037   -0.08914659565207   -1.28308523336506
C         1.12187365497045   -2.26089392639412   -2.18743892776014
C         0.20472608385073   -3.20950336065047   -2.63740455167360
H        -0.49788446274227   -3.64781310559458   -1.95116264583867
C         0.16263058155265   -3.59834157462237   -3.98422654223240
C        -0.85422358566124   -4.68270903969315   -4.35071836930236
C         0.88876535948379   -3.56789468633689   -6.25603911104855
C         0.27405689293869   -2.76134577500145   -7.21161442744968
H        -0.24123591240675   -1.86464931580874   -6.89211383181538
C         0.33135329484918   -3.09305030806642   -8.55218461016445
H        -0.15351860488551   -2.44692206351207   -9.26569311842541
C         1.01580975885070   -4.23334103005698   -8.96421242680468
C         1.61802883539284   -5.04637715757302   -8.00302900689711
H         2.13633330237881   -5.93333961366617   -8.32997942844392
C         1.55430156011647   -4.72313132334329   -6.66428067574742
H         2.03249968636716   -5.36038937753526   -5.93347997423721
C         0.53799575325778   -3.87471772993340  -11.26675502550181
H        -0.54758916526551   -3.84786224828492  -11.13294231844418
H         0.77283218979142   -4.38523417964414  -12.19922539202312
H         0.92957330326129   -2.85317460465645  -11.30378315689329
Cl        3.96951194174644   -0.07138546354777   -4.37211663421327
O         2.79655096889999   -1.68689885397895   -6.43792139185273
O         3.55795762133993   -4.62979203013768    0.81815731090613
N         3.77852609528800   -3.13149271410134   -4.52149043294579
F         6.46033042019383   -4.92738944469846   -6.06058028350349
F         4.96313107426520   -5.85605318342410   -4.84065133688277
F         6.29177310328643   -4.38478871295335   -3.99646064616653
C         3.48992033562834   -1.88282174284701   -8.66976180836176
C         3.97358405326745   -2.67497805889859   -9.71095872242483
H         4.46189577924483   -3.61319765494109   -9.50276279688184
C         3.79494076866628   -2.27649093977378  -11.02204781983600
H         4.16316475416123   -2.89755384826223  -11.82460285908411
C         3.13788119447428   -1.08985748320951  -11.31124085189020
H         3.00323071755391   -0.78467095096942  -12.33857951683587
C         2.65033037208106   -0.29869188991082  -10.28205322138418
H         2.13596221807133    0.62391273352332  -10.50496038203320
C         2.81971205486712   -0.69321772161835   -8.96980275262680
H         2.44256450501814   -0.08911183079439   -8.15401622041088
C         3.59899787876748   -2.26079179012141   -7.24961399040951
C         4.51610479760963   -3.20944518432440   -6.79966247251890
H         5.21871856071887   -3.64776115820631   -7.48590200556502
C         4.55816260389684   -3.59830836524732   -5.45284745981620
C         5.57502192412362   -4.68267293210672   -5.08635093041300
C         3.83199070593746   -3.56788266576979   -3.18104856197263
C         4.44673220141031   -2.76135708902855   -2.22547657727137
H         4.96204293707031   -1.86467129095367   -2.54497625746879
C         4.38945449089352   -3.09307607453425   -0.88491057879575
H         4.87434454796830   -2.44695928229310   -0.17140471181597
C         3.70499189902779   -4.23336353613509   -0.47288336450402
C         3.10275293283089   -5.04638687995155   -1.43406527564056
H         2.58444688239174   -5.93334886903388   -1.10711523011624
C         3.16645626739765   -4.72312351632143   -2.77281130518172
H         2.68825807016508   -5.36038157579441   -3.50361313566253
C         4.18277421333238   -3.87471200369058    1.82965949533492
H         5.26836283980916   -3.84784328228649    1.69587967359252
H         3.94791744469743   -4.38521040966189    2.76213451414119
H         3.79118032291270   -2.85317387597113    1.86665138677473

