77
CSD_code = TARQUZ | q = 0 | S = 0 | Stoichiometry = C30H34Cl2F6N2O2Ti | MND = 6
Ti        0.28512220378233    0.11177863094776    2.94714595168765
Cl        2.13648065990006    1.17742079489000    2.30226871767811
Cl       -0.39730752518296    1.67051267177117    4.39037736296597
F         2.55136126277030   -2.23410537255358   -0.77060549240457
F         0.74804158776322   -2.19419407424746   -1.92627606855444
F         0.90505371285079   -3.52756749430152   -0.26170572284303
F        -3.44161803109606   -2.80616503857575    4.18437743944254
F        -2.81867140020314   -2.83874400886213    6.23124121542945
F        -3.76226850091168   -1.08489272696413    5.43888994522120
O        -0.63302727584886    0.85283701017407    1.61107320276552
O         1.12188407898550   -0.78595754521989    4.23349908726531
N         0.71330645658943   -1.37972316449113    1.54198705229699
N        -1.37188543290430   -1.03144047758778    3.52509612234631
C         1.45458274628967   -2.42634871466190    2.12586163996941
C         0.80774994063547   -3.46217145159602    2.79625290785334
H        -0.27334178459924   -3.50445041305854    2.80553114897477
C         1.54820356093682   -4.43962949697791    3.43340383170769
H         1.03453874733990   -5.24115779444598    3.94435495162044
C         2.93745373860381   -4.40892246449413    3.42458704505474
C         3.57221777244788   -3.36405333755200    2.76222932525652
H         4.65114860551342   -3.31719932695712    2.75192606511661
C         2.84824338638361   -2.37885006578300    2.11968304637923
H         3.34885467585716   -1.55249868260559    1.63215925442791
C         3.73698726916895   -5.48027628428336    4.09994189354930
H         4.63966442004344   -5.06706121653716    4.54436687983488
H         4.03736288591175   -6.23313625495822    3.37092674964338
H         3.15372210423938   -5.97415908144193    4.87327322039164
C         0.64019585897131   -1.21154545380440    0.25171355497965
C         1.21612472465795   -2.28783071528834   -0.67278874894647
C         0.05130189864470   -0.10892508964240   -0.38123306696072
H         0.07994613966517   -0.05812092729951   -1.45533557452162
C        -0.53967346831271    0.91968875252441    0.34762817455808
C        -1.04416930185269    2.18329920725349   -0.33635185256505
C        -2.00948421413113    1.84572150022060   -1.47621683355370
H        -2.40625897646078    2.76590751097357   -1.89848821634147
H        -2.83769372670322    1.24854364362515   -1.10258125357209
H        -1.51408457100492    1.29432588674592   -2.26999205069579
C         0.19757256438271    2.91556574730667   -0.86817990716309
H        -0.09217942156237    3.88060231748942   -1.27710778618288
H         0.68773776870101    2.33956000037867   -1.64852389207442
H         0.91011260196128    3.07635810641974   -0.06076650661467
C        -1.75078562359338    3.05971051704375    0.70143142503313
H        -1.08441752199928    3.27040268276521    1.53828208242722
H        -2.63173889797595    2.55125201035335    1.08882044979225
H        -2.05548781050153    4.00076324915779    0.25066116716096
C        -2.45044600133591   -0.82276265738966    2.64386332722440
C        -3.32624032696265    0.24101456416071    2.86232562582348
H        -3.20291304851448    0.85817302093397    3.74280333624068
C        -4.31140869933162    0.52041457270831    1.93546949032755
H        -4.98407082542929    1.34692884449298    2.11369990780268
C        -4.45035871278770   -0.23928644542336    0.77855058777769
C        -3.57240921460227   -1.29636587434928    0.57257259566776
H        -3.66327282438885   -1.90084429917348   -0.31818735470834
C        -2.58042561439885   -1.59071181597612    1.48907319660736
H        -1.91004341376445   -2.42174013548950    1.31649655912175
C        -5.53290763482032    0.07034506056716   -0.20973895627077
H        -6.47773273047217   -0.35191620612274    0.13266218853927
H        -5.30617066012312   -0.35528755729986   -1.18414491177588
H        -5.66795213377347    1.14490880804279   -0.31356584796809
C        -1.51614082734855   -1.50906313616122    4.72706300456562
C        -2.88395880540322   -2.05342857158033    5.14683138411387
C        -0.49826960298790   -1.57280943858977    5.69167080102074
H        -0.74622779363221   -1.94501688524197    6.66932366856634
C         0.79587961528462   -1.14942938508674    5.41081505106161
C         1.89070597565852   -1.04303985113961    6.46210165483049
C         2.22441734252273    0.45811561026426    6.53522275168607
H         3.03455389970843    0.62482334593876    7.24089991367046
H         1.35286614763360    1.02646254829358    6.85551539840541
H         2.52832340132067    0.82481513866726    5.55317036922420
C         3.11532639038849   -1.81579152907293    5.95517947349127
H         3.39125568550378   -1.46822942031741    4.96122355049358
H         2.89781503053723   -2.88047083737998    5.90100799650973
H         3.95518088073670   -1.66178407932838    6.62795653355377
C         1.47842116696538   -1.55545539020304    7.83926224120767
H         2.31561944773851   -1.44703699335686    8.52506023104409
H         1.20662180391650   -2.60759869736190    7.80088652617062
H         0.64328419400860   -0.98385587387240    8.23519176813495

