49
CSD_code = TARQUB | q = 1 | S = 0 | Stoichiometry = C17H25MnN2O3P(1+) | MND = 6
Mn        2.98466363866784    9.04181479242809   12.68544327875220
P         3.95744530662949   11.16083021200310   12.56443876072013
N         2.87514570451551    9.26617829511606   10.52555743874233
H         1.96948995597053    8.92221475735391   10.19865910841209
N         4.82937695135954    8.34174418447820   12.18844506572400
O         3.17797958454683    8.78881633899904   15.60051596848744
O         0.19197543077292    9.84939940011506   13.05544259512008
O         1.94867687961958    6.29685594723362   12.69324927970280
C         2.97374060832018   10.65585026560403   10.04163595382108
H         2.02668837787180   11.15406959804288   10.26501757571578
H         3.11670566599219   10.67110993350759    8.95198297941425
C         3.14092847314229    8.89756516471357   14.46115963438390
C         2.35761082684060    7.36144602790694   12.64960437017455
C         5.07132886510295    8.19373739195769   10.87946674745718
C         1.29991011093559    9.59901319192104   12.90895349079112
C         3.90466142667482    8.38643401942479    9.94737596123972
H         4.25085651060557    8.76324941215213    8.97637014894683
H         3.46976970506244    7.39256493046228    9.77660173938396
C         6.31099437774339    7.80117307921500   10.39076073178649
H         6.45956468566074    7.70517488392989    9.32659676823178
C         5.81823607830811    8.05598956427868   13.04286086724963
H         5.59593744714258    8.15680849180680   14.09670652014355
C         5.72951986219129   11.44111353567738   13.08049215016934
H         6.27650576924671   10.62069786899055   12.59146231825344
C         6.32382780963098   12.75989007820345   12.59018254516069
H         6.23163092604342   12.88208069383235   11.51376008594830
H         7.38366357209172   12.77703612402816   12.83733702374063
H         5.86345581354027   13.61371406326491   13.08036484552494
C         4.11356824369417   11.39634187761981   10.73112407742798
H         4.09514401280793   12.45604597106864   10.47033077666745
H         5.07973507037833   10.98102729167766   10.42383108951901
C         5.90500656394031   11.30456326703161   14.59164558511607
H         5.57975922024882   12.20929242857959   15.09922126247374
H         6.95559049973712   11.15257696908320   14.83105633188508
H         5.33738083111905   10.46187083080711   14.98501208535625
C         7.33430221752883    7.52213833243677   11.27953605391640
H         8.30390128592178    7.21257216150813   10.92383057912952
C         3.03544846236892   12.64841154129907   13.19449504650894
H         3.74994268936102   13.47938567126914   13.21382544102946
C         7.07253714687691    7.64064782652455   12.63651889592495
H         7.82679677308994    7.41674068335744   13.37264747707756
C         1.85457705077474   13.03501271943484   12.30846432904056
H         2.16985650815564   13.35511847842300   11.31782069129747
H         1.32554857754220   13.86748036873222   12.76765649318437
H         1.14896590214324   12.21131154133667   12.21624346903162
C         2.54991712217584   12.35700354595732   14.61409749977165
H         1.82833914132023   11.53963109902087   14.60901517496580
H         2.06213918341182   13.23745347133065   15.02625775354194
H         3.36715313317291   12.08240167685497   15.27562593393329

