41
CSD_code = TARRAI | q = 1 | S = 0 | Stoichiometry = C18H16AgN4O2(1+) | MND = 2
Ag       14.50100977712846   13.01724672831083   12.05920716877550
N        14.99031979308850   13.04602434649288   14.14919348714248
N        15.82983403033318   13.58596733933550   16.10982241722612
N        14.04067020658734   12.98677470463823    9.96271941320557
N        13.06849160624605   12.65864229262105    8.01663022389272
O        18.62747327772088   16.38363490813183   19.97881962049772
H        19.05837519275417   15.81102396785816   20.62641313494956
O         9.35354748676803   10.98288208660453    4.27316330628079
H         9.23357870978441   11.60979724616297    3.54823490518541
C        12.99020252039021   12.47449434306692    9.34255390389230
H        12.16436664424533   11.99269690361219    9.82950224515063
C        14.82949364865068   13.52104838307986    8.98244914004305
H        15.76133752187826   14.00331990624748    9.20555274380524
C        14.23385134416897   13.32563333274380    7.77353038345971
H        14.55541889779347   13.58287425370799    6.78639993905657
C        12.12461772493116   12.24210855117161    7.05325227003973
C        11.47091211290221   11.02170733560114    7.19980475211002
H        11.70032622389028   10.38184122131106    8.03773478528562
C        10.54810751041308   10.61693381296385    6.26126575630286
H        10.03577063826592    9.67373089660981    6.35477200518875
C        10.26269768163490   11.42469406954941    5.15828796029899
C        10.92274472238730   12.64389401737209    5.01660173160548
H        10.70759504180735   13.27773400460504    4.16824321592855
C        11.84753067072344   13.05036109119291    5.95773754335884
H        12.33969857251140   14.00431652832551    5.84798722289343
C        14.58437680491224   12.12110846011559   15.07006850739599
H        13.95487132352951   11.29474072190426   14.80292590885146
C        15.10228363965195   12.44521597060392   16.28716057221083
H        14.99046086769218   11.97569539450745   17.24164747838915
C        15.73689745703228   13.91366866445052   14.81292044537125
H        16.22777533779797   14.76188376948094   14.37599581212051
C        16.54540710257948   14.28727981639182   17.10410579474123
C        16.57553620249725   15.67908983554346   17.09036526672378
H        16.03376450543340   16.22493215820852   16.33356905201098
C        17.27621914959724   16.36303075745539   18.05863395122127
H        17.30698115413440   17.43999233134503   18.06757661997257
C        17.95887918242719   15.66776912795338   19.05917285483676
C        17.92259917390571   14.27464495791755   19.06804868341856
H        18.44976151717055   13.72676652951504   19.83595005744268
C        17.22076249894140   13.58854537731935   18.09701886123612
H        17.21405252568750   12.50955385598206   18.10256085847484

