131
CSD_code = TARSEL | q = 0 | S = 0 | Stoichiometry = C50H72N6NiSi2 | MND = 6
Ni        8.38514705339994   13.40259245076164   -0.00008006092806
Si       11.63093045504428   13.73445912212317   -1.31098168363415
N        10.36299054389825   13.40819880125630   -0.19884850193318
N         9.22525273338911   13.37801352230074    1.68718335680850
N         8.38503767972556   10.95997603145671   -0.00003665215637
N         8.38545817195568   15.84808886410053   -0.00020800309791
C        10.94590191501132   14.93078677793130   -2.63528961468699
H         9.96516697259506   15.28963117879446   -2.34025712488430
H        10.85013100248338   14.44581749901574   -3.60080390802428
H        11.59060282144114   15.79427457823795   -2.76812064347537
C        13.16086932198235   14.59793657340092   -0.54290025439374
H        13.74444455028489   13.92419821747400    0.07562925625657
H        12.88039661900703   15.44528661919631    0.07571308525077
H        13.81540128555941   14.96930334028684   -1.32596320078647
C        12.30393316831441   12.14512767020857   -2.14980595943713
H        12.81783231330866   11.50120865810890   -1.44122465784887
H        13.01994001455432   12.40668937710836   -2.92324698110822
H        11.51816405492398   11.56191964192372   -2.61956940969867
C        10.40790575827908   13.33881286396434    1.13182017554802
C        11.68409124756953   13.23261178348985    1.88491792975168
C        12.11286707227458   14.26327309897842    2.71506862629685
H        11.50709853133219   15.15319955728859    2.81575878396421
C        13.31021490222576   14.15772727131490    3.40013851605619
H        13.63751757945168   14.96436120782584    4.04022095767193
C        14.08926311639192   13.02031701403611    3.26803593039379
H        15.02283579409647   12.93770235457074    3.80504251588142
C        13.66817941126958   11.98971335503568    2.44424791408916
H        14.27590432864459   11.10212165545754    2.33794158356734
C        12.47270096279407   12.09565298689911    1.75622179844445
H        12.14134661898076   11.29304452995876    1.11434574764271
C         9.01100378768553   13.23476711057955    3.10114570602680
H         8.35000959328341   14.04154558419795    3.43232402417369
H         9.96115759390973   13.31472361839753    3.63836227083531
C         8.33613380159046   11.89127071382689    3.42457264766571
H         7.55648723898301   11.77933070072242    2.66202023826978
C         7.67960145098154   11.89312683409240    4.82307971054073
H         8.06678613255465   12.74110756622191    5.39088494202251
H         6.61020214289047   12.07658186372347    4.70585208721572
C         7.88006221478167   10.60104108830584    5.64856331702460
H         8.21671935571765   10.85459116443205    6.65574489337877
H         6.92520691946213   10.07934455922321    5.75198400871199
C         8.87121155805308    9.63586581555967    5.00748067907527
H         9.01472062338851    8.74946892212130    5.62899656392178
C         8.46034786144041    9.44042568309237    3.54269924176117
H         7.39457243832373    9.50077258091136    3.33062068914052
H         8.85809222590282    8.53625660312992    3.08872448301910
C         9.28324441841462   10.70698152504782    3.25344904663744
H         9.81295456007005   10.77231105841320    2.30372316582193
C        10.13290891617934   10.37016013963638    4.50403826585257
C        10.74654663271682   11.45894874200003    5.37492906725884
H        10.03190352203113   12.20733529314414    5.69087161693017
H        11.55191028399489   11.95546942469236    4.83549310968730
H        11.17269368315538   11.00194879689377    6.26783196170728
C        11.26079238385579    9.39820516678604    4.15218094091597
H        10.92289063705978    8.58801957953039    3.51352058143854
H        11.67708528525809    8.96430059131005    5.06004711720307
H        12.05440948669871    9.93235360587918    3.63337504566884
C         9.48464468226321   10.27519629166914   -0.28379566036503
H        10.35889249931988   10.86764913813328   -0.51598083560214
C         9.53749975617991    8.88989629864345   -0.29084704262635
H        10.45977294897389    8.37913543368736   -0.52288223010691
C         8.38470373784810    8.18001378943963    0.00002784078681
H         8.38456848278507    7.09905110951023    0.00003196734994
C         7.28990726366255   16.53357083305297   -0.29952478301360
H         6.41168261640010   15.94707458813370   -0.52913313051214
C         7.23888266826669   17.91903476135001   -0.31385259841729
H         6.32106957047167   18.42854715059554   -0.56473339746396
C         8.38573066578188   18.62978591061501    0.00003331225102
H         8.38581509955644   19.71049688956336    0.00010534059136
Si        5.13916352699535   13.73434740473376    1.31099265788367
N         6.40726355174479   13.40856835950097    0.19886814609369
N         7.54471797013841   13.37814167475675   -1.68745109482694
C         5.82345693414843   14.92950648829646    2.63667894097816
H         6.80295882206383   15.29131046336675    2.34105043631947
H         5.92183062862192   14.44193153579216    3.60074072193669
H         5.17680838758193   15.79114950139739    2.77283130230393
C         3.60995016314316   14.59891874152898    0.54262855297076
H         3.02637243914480   13.92589471521335   -0.07666390760968
H         3.89112925754829   15.44650547231500   -0.07533255517963
H         2.95509061572371   14.97018120066581    1.32544237059970
C         4.46504895512758   12.14504129859791    2.14899971841688
H         3.95131295262677   11.50112754952589    1.44027065796263
H         3.74883700469902   12.40685569574442    2.92217734593898
H         5.25056800685021   11.56180554597346    2.61914312380793
C         6.36218647960374   13.33902456121898   -1.13180735085055
C         5.08591231608164   13.23258906449744   -1.88477343469855
C         4.65676614531078   14.26315238707275   -2.71485501300891
H         5.26226795702502   15.15325209984878   -2.81561079214342
C         3.45934000284123   14.15732662642602   -3.39975510912309
H         3.13178252713083   14.96384858485552   -4.03983757516229
C         2.68059996846428   13.01971897425433   -3.26758874982452
H         1.74706668273304   12.93679487405292   -3.80461623714392
C         3.10206987195894   11.98918573646057   -2.44390304205878
H         2.49466585104387   11.10135502173181   -2.33767105558060
C         4.29762016081486   12.09540715728708   -1.75604446853507
H         4.62927886836426   11.29286278322384   -1.11424356676731
C         7.75853724608694   13.23464042275102   -3.10146582011967
H         8.41918921338027   14.04154167057294   -3.43308108601505
H         6.80818574838225   13.31418974261589   -3.63838702427299
C         8.43364562008020   11.89124033771500   -3.42479310126396
H         9.21327142763404   11.77950021320141   -2.66219295939179
C         9.09024716123381   11.89309330615542   -4.82327223292984
H         8.70295456759765   12.74096961281997   -5.39115957705516
H        10.15961786269782   12.07671145653875   -4.70604278724257
C         8.89000731459344   10.60088842565950   -5.64862607679565
H         8.55339602080422   10.85432091903204   -6.65584936902286
H         9.84493199181496   10.07929130465497   -5.75193813596586
C         7.89892648141285    9.63563619692690   -5.00754407093484
H         7.75553348663883    8.74918942358747   -5.62901974769501
C         8.30980747545038    9.44034384590726   -3.54275079008209
H         9.37557603124300    9.50084192541870   -3.33068073087482
H         7.91218171790521    8.53615304410850   -3.08871909623248
C         7.48674683389271   10.70680654106819   -3.25355871702411
H         6.95702880244322   10.77211525608979   -2.30383128216019
C         6.63714624274020   10.36982143792442   -4.50415030506564
C         6.02337706463292   11.45844917680725   -5.37515419134871
H         6.73796279365354   12.20681081311998   -5.69128436417993
H         5.21803305809346   11.95502432721342   -4.83573824299345
H         5.59716902541763   11.00128723843710   -6.26794765235277
C         5.50936730403830    9.39778553285436   -4.15218638483560
H         5.84735248273550    8.58770783124229   -3.51343516078618
H         5.09312118111009    8.96373519585041   -5.06000391537611
H         4.71568927801522    9.93190777569983   -3.63344270191004
C         7.28527298113245   10.27547393065333    0.28377939508933
H         6.41119989993613   10.86815432817129    0.51604103534733
C         7.23208571305953    8.89018734326612    0.29089830434471
H         6.30969202593784    8.37966638829648    0.52297842154036
C         9.48109047465938   16.53324646181163    0.29926780295300
H        10.35926957509157   15.94657789420292    0.52850826548340
C         9.53244297384426   17.91872287991407    0.31376066901017
H        10.45052613498711   18.42791115259132    0.56443788115960

