63
CSD_code = TARSUB | q = 0 | S = 0 | Stoichiometry = C24H35O2PPd | MND = 4
Pd        3.52810629216101    3.68204929536022    2.53760583066875
P         3.49957968346365    1.79616373813291    3.65304159207066
O         1.42014167789652    4.18337686663938    2.70316813911112
O         3.78473906072618    5.44433895395889    1.45264955973299
C        -0.59308490897671    5.40362282935637    2.46555763115011
C         0.89742263092252    5.22365284202396    2.22576887743738
C         1.53445628198195    6.23396578306745    1.50080987755999
C         2.89231282980394    6.28129186005159    1.16596692483946
C         3.33966955281921    7.48828598084760    0.35763822034137
C         5.23248838369419    1.27186859147559    3.75411174279680
C         5.73437652779276    0.20656551324537    4.49213203833278
C         7.09560283791274   -0.03721548448446    4.50155586611004
C         7.94871614860134    0.78749475675385    3.78347425598331
C         7.44994605324980    1.85784691800086    3.06330311797047
C         6.08265017966122    2.12048730612041    3.03756612005421
C         5.51182921320609    3.27857552402041    2.28102815370676
C         2.54979865975065    0.46562485549643    2.78510320078996
C         2.89962644897621    0.62862966726983    1.30165692458582
C         2.09013961979368   -0.34680338538214    0.45388692557225
C         2.33418118287275   -1.78049209240792    0.91966997002460
C         1.98302081828002   -1.93383298733172    2.39702332087139
C         2.80642350773475   -0.96511633364370    3.24484557286184
C         2.94575442706956    1.95218743888235    5.40995818305050
C         3.68284598669407    3.20044326136561    5.91099446009603
C         3.20020547278485    3.62096381568613    7.29449589137197
C         1.69495144059973    3.86446906537671    7.27317318801316
C         0.96872583211235    2.59788700089851    6.83377979907160
C         1.43389870240472    2.16877043938684    5.44479587840700
H        -0.98022465350299    4.55601228238219    3.02611976487810
H        -1.11781121625479    5.47703848735827    1.51559159178090
H        -0.77247192693649    6.31857279151527    3.02616995640024
H         0.92025490492801    7.05649088163989    1.16474915105193
H         2.81873369559020    7.50865923155319   -0.59771826922747
H         4.41122846428404    7.43296409278533    0.18164967542564
H         3.10706206263458    8.40603110981788    0.89382959995413
H         5.06839502677415   -0.42072274088129    5.06721032101551
H         7.49443030047172   -0.86272992288011    5.07266809331012
H         9.01224135332784    0.59702817932743    3.79491123260354
H         8.12646728713558    2.50180680786236    2.51892496401211
H         5.63786163315131    3.10247857806725    1.19780745421390
H         6.07804967837809    4.19073824533884    2.52793305038234
H         1.48929976970411    0.71519974463904    2.92084263211441
H         2.69889928386645    1.67182013577865    0.99287616259855
H         3.96919766372852    0.43550651406931    1.16524974621902
H         1.02734792142141   -0.11166297707409    0.54632327038947
H         2.36556931473366   -0.24570658288898   -0.59751188628811
H         1.73574246274180   -2.47179763146507    0.32303617743705
H         3.38630661856404   -2.03407915472817    0.77135513723239
H         2.17297697844801   -2.95971583580218    2.71957300778217
H         0.91935661676904   -1.72934467634343    2.54011233066605
H         2.54522451715621   -1.07802942256490    4.29987801175412
H         3.86644845373287   -1.19910553631428    3.12549321138061
H         3.23077286342921    1.07843429178163    6.00793771463091
H         4.76004635518042    3.00726113365737    5.92734351435382
H         3.49865762478679    4.02259145672321    5.19068404566223
H         3.43140065457751    2.83376057301819    8.01695560299162
H         3.72341473579258    4.52637216188155    7.60768396273950
H         1.34970535714284    4.17069595467353    8.26275624151471
H         1.47050826373239    4.67021065462953    6.57115616721888
H        -0.10949116278750    2.76988528589533    6.82194378150611
H         1.17155033889143    1.79751112404509    7.55067742335248
H         1.18456289924909    2.94739421042946    4.71599899973340
H         0.91706131523885    1.25032853190165    5.15572689655670

