91
CSD_code = TARVAJ | q = 0 | S = 0 | Stoichiometry = C26H58N2NiO2P2 | MND = 4
Ni       -2.75444519874962    6.26512361290711   15.25708659994913
P        -2.02895849985624    4.00189306872388   14.80546918253717
O        -2.61104160756502    4.57112294840648   16.09180840455230
N        -1.38140581598875    5.35514072147500   14.18838955276719
C        -0.73730654432946    5.71165013221540   12.93333804038798
C         0.00891477212572    4.49559658718469   12.36002184604047
C         0.56911741442293    4.66710308534181   10.95235161546132
C         0.25512169520031    6.83488555826753   13.27386805915276
C        -1.74255760867448    6.26080805475396   11.90895425728565
C        -3.54542397561924    3.30602816369163   13.87025133382706
C        -4.44112448441038    4.52961542962731   13.65256738587923
C        -4.26446974748338    2.30640526231550   14.77083156140852
C        -3.23982460044259    2.65838276001056   12.52467360466337
C        -0.82265048861112    2.66712683549744   15.41304283379572
C        -1.46570916173729    1.97880515720974   16.61643185362276
C         0.36307137146035    3.49083895801336   15.91230877074319
C        -0.36648737691522    1.60764622119364   14.42003785946020
H        -0.68659361991784    3.65407473635977   12.36494960416680
H         0.83460315868753    4.25548356458963   13.03255246802789
H        -0.22358699563106    4.81401184281561   10.22409074821504
H         1.12363553199152    3.77338632496363   10.67092075210136
H         1.24881085723523    5.51365705283753   10.90098252473870
H         0.82730496251909    7.13138216331509   12.39874151835837
H         0.93943604465277    6.50736416285667   14.05326172977125
H        -0.30266154360247    7.69536042850689   13.63381129283159
H        -2.32080605216183    5.45982550987106   11.45356304178108
H        -1.22558518853496    6.80471751064590   11.12238449018670
H        -2.41659806727266    6.94746299507525   12.41669304081474
H        -5.41089481281898    4.22385876458345   13.25929390026129
H        -5.27536223866433    2.13093633957936   14.40239996827410
H        -4.32937958342004    2.69123580946312   15.78572378956967
H        -3.74611710021158    1.35047041935167   14.78828919171562
H        -2.78802093466128    3.36875541709634   11.83734523708256
H        -4.16858703999207    2.30402434518067   12.07584896325120
H        -2.57208115408670    1.80703666005942   12.62893448287987
H        -0.70132328628150    1.45615816167663   17.19116891527854
H        -2.21246601988101    1.25096393722759   16.31335178143722
H        -1.93703726404597    2.71570918830360   17.26162693976448
H         1.06835763873715    2.86114268723979   16.45421964832187
H         0.00336923944608    4.27248925178162   16.57966169738368
H         0.88617281712405    3.96678763675270   15.08784616815241
H         0.09932109775182    2.04284590324368   13.54147399293804
H        -1.19859044472551    0.98218779463842   14.10407503355890
H         0.36764435877585    0.96153369166818   14.90299368535207
H        -3.98551639281432    5.21896005924098   12.94043806632999
H        -4.60975343712647    5.06847708215223   14.60026387583808
O        -2.89673650379537    7.95951832608155   14.42294290016610
P        -3.47850061544894    8.52887874579839   15.70938283936623
N        -4.12610569884420    7.17580026820489   16.32678830739036
C        -4.76974964285393    6.81947551667329   17.58206686254277
C        -5.51590141652601    8.03572539113586   18.15510138120986
C        -6.07608408838727    7.86383410737463   19.56272361193516
H        -5.28348170442961    7.71678347378682   20.29108030505130
H        -6.63046358412333    8.75762514548703   19.84410325468916
H        -6.75597580470753    7.01741599305826   19.61401657032702
H        -4.82038520014623    8.87726953072110   18.15022481425024
H        -6.34158899996195    8.27576776456088   17.48252837610933
C        -5.76181738146909    5.69594563702067   17.24145956749829
H        -6.33414529315181    5.39978357308484   18.11658715172410
H        -6.44599627266656    6.02314499497518   16.46180778769967
H        -5.20397268666212    4.83529332683609   16.88188634325098
C        -3.76413247917596    6.27031066803587   18.60613091293095
H        -3.18592898056339    7.07138809353169   19.06140497704787
H        -4.28098637468722    5.72649916470683   19.39283087535058
H        -3.09005792178081    5.58359317342625   18.09846706805562
C        -1.96182167183786    9.22480399449966   16.64441766262979
C        -1.06523988035161    8.00193658883665   16.86253187313596
H        -0.09552079107248    8.30785158314080   17.25597195096895
H        -1.52103986983886    7.31253175548772   17.57458016618018
H        -0.89626348018290    7.46309231641300   15.91477207073598
C        -1.24261999357268   10.22444968127166   15.74399788032941
H        -0.23169206140220   10.40016980554981   16.11228344181207
H        -1.17782536520508    9.83964805107077   14.72909320481424
H        -1.76113997105649   11.18027483155203   15.72657390749611
C        -2.26697708237712    9.87262086207279   17.99002864634245
H        -2.71857370079782    9.16229616156337   18.67752753254766
H        -1.33820706756709   10.22721492605259   18.43870716478821
H        -2.93486569969158   10.72384170131505   17.88579877412629
C        -4.68466674879031    9.86383298109158   15.10200504675751
C        -4.04170264468749   10.55208871122952   13.89852063688878
H        -4.80616003312739   11.07462336384604   13.32378501426615
H        -3.29500872750964   11.28003413826134   14.20149829237701
H        -3.57032182288030    9.81518625210236   13.25335929347127
C        -5.87032994816234    9.03996074803368   14.60290815269887
H        -6.57568114056197    9.66967380313077   14.06111954573809
H        -5.51068142079323    8.25831836237436   13.93550452450380
H        -6.39329987513163    8.56401701081583   15.42745649244029
C        -5.14058875475904   10.92329180105582   16.09515031216648
H        -5.60628191579809   10.48806610042605   16.97376638119046
H        -4.30848019772345   11.54881254451071   16.41100187206933
H        -5.87481415963482   11.56933703188137   15.61226694300493

