64
CSD_code = TARWUH | q = 0 | S = 0 | Stoichiometry = C25H32ClNO3RuS | MND = 10
Ru        4.44216779846252    5.84958969092870   15.13184574572783
Cl        5.68562653002098    7.05744647039338   16.74470203393527
S         3.03810968827734    4.16760227965921   10.54977140702952
O         2.31279028629538    8.39076788147290   13.75100730674405
O         3.41080363538810    2.78713401636098   10.66393207871078
O         1.65127450554053    4.51683197299089   10.62414755588535
N         3.79068586669000    4.94761683220286   11.80547365596557
C         6.44473474146724    5.51359348311523   14.24470665702817
H         6.97646694499944    4.57080561629409   14.33547651379324
H         7.05949393144975    6.37979104573835   14.48829681836941
C         5.49534394513217    5.60752616285488   13.21223476159319
C         4.56219982678661    6.67727350733523   13.11641901902676
C         4.58794514592718    7.77865196203765   14.01179899217839
H         5.54967082538754    8.23020224442278   14.26555438219868
C         3.41434824578435    8.61552840580930   14.23449964862006
C         3.65593681745923    9.77066986157618   15.17659718804718
H         4.29706963836086   10.50404878454941   14.69069156521346
H         4.17024829562287    9.41141487092063   16.06648391259409
H         2.71500397806094   10.24122176961463   15.44831211531668
C         5.15696145627844    4.60044667230907   12.14374759164597
H         5.84040983581827    4.75170867922693   11.28877925825083
H         5.21136188027898    3.55600079629409   12.44890411828376
C         3.61540183136633    6.37705085783959   11.98539250462007
H         2.57374547107160    6.61676475963214   12.18947482473213
H         3.94041624533797    6.94489266557032   11.09502117310141
C         3.24038357689750    3.94221875607261   15.05511246346557
C         2.32896376203720    5.04541649165017   14.98620223689513
C         2.45530210316652    5.80570018390723   16.19139898036589
C         3.42146110293769    5.15123267193115   17.02490881597208
C         3.94056657432766    4.02265516478686   16.30483563330297
C         3.21866979833055    2.74229546767778   14.16506943375531
H         2.95208635873171    2.99458885654433   13.14149688189674
H         2.46914145312199    2.04416085793794   14.54455663798985
H         4.17773116466355    2.22789148059462   14.16345921824366
C         1.22264002271242    5.22695911362667   14.00216711101885
H         1.04262628388439    6.28469942870815   13.81736142512601
H         0.30817742202895    4.80408850335043   14.42403303131003
H         1.42357988916227    4.72736175763529   13.05763941335145
C         1.54947907218874    6.92115663152077   16.60383203494797
H         2.01453986541050    7.53932694997355   17.36865000643139
H         0.62159970589073    6.50997360809632   17.00560119286667
H         1.30034951986083    7.54852698947861   15.75031042530570
C         3.66840844329375    5.43623668417064   18.47134202587124
H         4.68688064525906    5.18061733827297   18.75396147140195
H         2.97779793842539    4.83754029386889   19.06908754415883
H         3.50836894132886    6.48719582717956   18.69884521489254
C         4.83187532566904    2.97250367171630   16.89424624456664
H         5.30677400609298    2.37957020043142   16.11661575422933
H         4.24537842369623    2.30379783329801   17.52686847403607
H         5.60915666725372    3.42681078741295   17.50571535159181
C         3.76292891078469    4.87285080064876    9.08180222166722
C         3.21914430167131    6.02602413241129    8.54843646991227
H         2.31731436144437    6.42753275614409    8.98321840328112
C         3.83055356607051    6.61741991627414    7.45814779796758
H         3.41252529422059    7.51607744746060    7.02906384488451
C         4.98307963031839    6.06551009139349    6.90291516720306
C         5.50942770290287    4.90366260523763    7.45748613819166
H         6.39832240073676    4.46292329170299    7.03071504104252
C         4.90340095906406    4.30586599871644    8.54970061277715
H         5.28545162717507    3.39524343413980    8.98413749977765
C         5.62440048944453    6.71188439075638    5.71494618893677
H         5.75695774357961    7.77868404612198    5.88464157693406
H         4.98798433684852    6.59290464792443    4.83860089653113
H         6.59165324212067    6.26590960208324    5.50020028929254

