34
CSD_code = TARWIU | q = 0 | S = 0 | Stoichiometry = C11H15N3NiO3S | MND = 4
C         7.05834102704970    1.24023716699940   -1.85279337990424
C         5.71228415925507    1.01169721936588   -1.48301095533745
C         4.96167369980671    0.06719601510418   -2.21534144486155
H         3.93096936719474   -0.09918690857247   -1.93539686702783
C         5.50664932257257   -0.62624977964145   -3.26188794266848
H         4.91336182784112   -1.33872648771437   -3.81377716571232
C         6.84355644549359   -0.40782561622480   -3.61162796816516
H         7.27869433300307   -0.95521275055051   -4.43420732149392
C         7.59985433013695    0.50042666673411   -2.91855132259255
H         8.63023004528680    0.67901798250396   -3.18380896355377
C         5.08138884723153    1.64977551049282   -0.38234492557953
H         4.08356601477133    1.26548002243940   -0.15784227024824
N         5.54319093485167    2.58030492722859    0.38950617650310
N         8.12628787834222    5.65692048641684   -0.69479280312024
Ni        7.04233593190136    3.64009189914832    0.28053798914517
O         8.54224173486746    4.81742195518488    0.16434390689375
O         6.97519135047196    5.49012232951825   -1.11266865389291
O         8.82926157975111    6.56636988863008   -1.03100382420811
S         8.10170841092685    2.35807857582805   -1.08482359512104
C         4.71583936398909    2.92991049360726    1.54007306810864
H         5.01725817568828    2.30051058550047    2.38691156827965
H         3.65781005650461    2.72545892415567    1.33453540885684
C         4.89312701847323    4.40495742997255    1.88695246849505
H         4.42372284358016    5.00440425715840    1.10173534442650
H         4.40691224633719    4.63271935881965    2.84767770397370
N         6.31857305396737    4.75134917503075    1.91814391913243
C         6.45832733353698    6.20895069509040    1.91838817109783
H         5.95025178717188    6.64477019505319    2.78768637276390
H         6.02561740706801    6.62566936649311    1.00964465994848
H         7.51225066950054    6.47920968382908    1.96043466524922
C         6.97429446997549    4.22250340482269    3.11846958540641
H         6.51186653786211    4.63219806471341    4.02659893326106
H         8.02682376722959    4.50211312854039    3.09947711986447
H         6.91433802835942    3.13513613432049    3.14786234208281

