72
CSD_code = TARXAO | q = 0 | S = 0 | Stoichiometry = C27H38ClNO3RuS | MND = 10
Ru        1.72399618436084    7.02263316675533   14.90172984936675
Cl        2.49612034744186    4.98183635665317   15.88425595209276
S         4.64722547159489   10.86946116025505   12.81782717238835
O         2.00879405457580    6.65241603972083   18.42494103079331
H         2.06866947348543    5.85365839902534   17.86642181318452
O         5.19098248214868   11.80329653861170   13.75725733139187
O         5.47102794682981   10.38237852500104   11.75372001872068
N         4.11350843612972    9.54688529636113   13.68825217735825
C         2.99907997497781    8.76458871659201   18.88985333088164
H         2.03130918507462    9.25347235987922   18.82480463693416
H         3.77450570229539    9.46325639314375   18.59030906651493
H         3.16316195849544    8.45672213824810   19.91916820984940
C         3.03251543947590    7.52035027805870   17.99267393675912
C         2.82033353396660    7.95374560090271   16.58327168480111
C         2.91706113217220    8.73463394344991   15.62133170306338
C         3.33192366467671    9.91398068422251   14.85434027580415
H         3.97525615330441   10.55092433572431   15.47009615500386
H         2.44407729132468   10.49607280042426   14.55745183489305
C         3.56963864623839    8.48378037949973   12.87506728630816
H         4.25521974535308    8.39962247817213   12.02564539865931
H         2.56674642825523    8.74718071600442   12.49637772440318
C         3.51760898958284    7.15345229524342   13.60433325346080
C         2.63109037657494    6.18038398757923   13.12624509457413
H         2.91002611298073    5.13370079359033   13.22089880326321
H         2.04731257985676    6.40429660854977   12.23809529328678
C         4.40608671786311    6.83699394697542   18.08347689001092
H         4.58958888136074    6.54234294525408   19.11407850300077
H         5.18935066969469    7.51516083092035   17.75625896716921
H         4.41667725111148    5.94909483364221   17.45595717591612
C         4.84314271425005    6.74848881316848   14.21026102839437
H         5.23230167453657    7.53348520393632   14.85555589458122
H         5.56281335843331    6.58586432491868   13.40658273808311
H         4.74277512766644    5.82783954477157   14.78283042064702
C         3.13011543878297   11.53638529182109   12.13452725805922
C         2.61950843525634   11.00007970430406   10.96783182814823
H         3.20920282572372   10.28210422603185   10.42002074269666
C         1.37696078896918   11.41233267635690   10.51611099287881
H         0.97393138807452   10.99724345611842    9.60370531822501
C         0.64013836484941   12.35483807640797   11.22636338941092
C         1.18118894535906   12.89396215731944   12.39098963833918
H         0.62185485953055   13.63540337954910   12.94243112935946
C         2.42136923137100   12.48490447290964   12.84880767765658
H         2.86182316730412   12.90074414611238   13.74159247209765
C        -0.70238525162408   12.80533290278789   10.74102848865848
H        -1.10470146350796   12.11467674213331   10.00450464824169
H        -0.61632727751706   13.78725389835771   10.27611458426697
H        -1.40345282458610   12.89087233689281   11.56873850075545
C        -0.16743241163858    7.82794223018774   15.86572581530285
C        -0.32340532457939    6.43774744558276   15.63684257199277
C        -0.19925959197164    6.20573787216616   14.22540876465904
C        -0.09641187975139    7.49342757912455   13.57901604846451
C        -0.04442980568315    8.48610888723650   14.58492493889374
C        -0.38428648265708    8.51615607019179   17.17701061982906
H         0.06715942201528    7.94627187681218   17.98753520813779
H        -1.45537668061492    8.60221657996314   17.37088400591494
H         0.04536723654837    9.51613078097430   17.17239811245379
C        -0.69949231879028    5.40934522238728   16.65341136994119
H        -0.16640556877060    4.47641552147085   16.48079709206434
H        -1.77082053814127    5.21032804081320   16.58405335172715
H        -0.47075037027335    5.75461413366488   17.65823694440073
C        -0.52628323191017    4.90228963935032   13.56143298437546
H        -0.17431463374732    4.87663789607339   12.53261248301943
H        -1.60741286824648    4.74957204699348   13.56156298948295
H        -0.06692740597597    4.07609099903881   14.10134960965914
C        -0.29416317696527    7.77441429229618   12.12105631602725
H         0.36681264011514    8.56502399231285   11.76491555521152
H        -1.32230274193894    8.10852592065923   11.96464146145103
H        -0.13519707640123    6.88652925743070   11.51383991745825
C        -0.19984450018534    9.95586924290549   14.34392138963434
H         0.18186888278909   10.54200982565932   15.17759799226306
H        -1.26230391545274   10.18701278926798   14.23235108351084
H         0.30435800822262   10.27054795501257   13.43083605370133

