64
CSD_code = TASCAU | q = 0 | S = 0 | Stoichiometry = C29H30AuN3S | MND = 4
C         0.10145049452255   15.69116550792236   11.14329182407192
C         0.50530378188496   16.67152783303677   12.05917077719918
H         0.12479107083327   16.69772791953145   13.06921266629314
C         1.88134967439101   17.63604853196184   10.51856360852527
H         2.58980716777799   18.42382824062371   10.31090642768288
C         1.52531574856825   16.68878898764138    9.54912578002445
C        -0.81023793545995   14.58205381808069   11.31778733357919
C        -1.00240978138212   13.76240700588071   10.17960573689383
C        -1.83529499561514   12.67012039949342   10.30085932334864
H        -1.97865003711749   12.04566277450328    9.43080045298064
C        -2.49036361893359   12.34743749391527   11.49115061097368
C        -2.29297606802172   13.17947931831122   12.58923955622008
H        -2.78078974814856   12.97443190892144   13.52843565713003
C        -1.46660310902239   14.28320854287709   12.50881808251801
H        -1.32455468742264   14.90958389200673   13.37807545196155
C        -3.37396774316080   11.11357314001436   11.53138191104380
C        -2.52209857544500    9.88454579196004   11.18045620697015
H        -2.09240655832630    9.96955463589191   10.18594502211185
H        -3.13401552175284    8.98546393675401   11.21162620034534
H        -1.70763785901916    9.77356930097858   11.89426191937560
C        -4.50128716794566   11.27676084952871   10.50175299644784
H        -5.09530684477184   12.15953380744287   10.73052901322180
H        -5.15383898468250   10.40638082970522   10.52158458837813
H        -4.10618277314429   11.38431341235088    9.49558638680543
C        -4.00727556694390   10.88188880917583   12.90609256668701
H        -3.24613736308219   10.74152508214277   13.67053917201814
H        -4.62013509186335    9.98330561894485   12.87446867561271
H        -4.64820672051025   11.71428890525105   13.18792606882018
C         1.98419227878412   16.54381670921394    8.18558338330236
C         1.44450060150919   15.44767867321822    7.46894724315167
C         1.85980818213221   15.25902459154290    6.16687043770169
H         1.44478221134596   14.42343068436072    5.62230092211253
C         2.77927364982624   16.10138004229336    5.53694585078698
C         3.28796187871151   17.17234521441411    6.26587048388248
H         3.99804197941770   17.85122413439607    5.82223511598350
C         2.89959210636556   17.39479054666453    7.57219604591531
H         3.30982146083487   18.23315287756652    8.11705493735680
C         3.17575971073745   15.81647123097349    4.09927781616230
C         4.20317691308628   16.81459878000082    3.55795472918379
H         3.80652205283467   17.82737941323488    3.56147657598320
H         4.45068550417579   16.55608854713386    2.53035345206168
H         5.12142506284677   16.78775726580880    4.14059251252424
C         3.78561740212669   14.40945228711624    4.02127692603574
H         4.66016541873503   14.34127908327726    4.66565961411879
H         4.09121807942262   14.19167758267777    3.00003670893128
H         3.07318564547504   13.65072061150567    4.33248589535113
C         1.92157493678567   15.88911587966178    3.21665716693616
H         1.17595908692584   15.16302777244675    3.52776733792256
H         2.18315692026401   15.68855900970102    2.17977049962476
H         1.47685671266382   16.88063504741475    3.27535257737655
C         0.56782274178457   11.70292082734937    7.77216081346284
C         0.68824661698336   10.36586262793086    7.38766303092542
H         0.07042907424128    9.98774855537417    6.58980417459091
C         1.59537067074692    9.57426470124489    8.05650115721083
H         1.71071951675299    8.53354146290338    7.79055864084241
C         2.35973359755541   10.12634343535678    9.08240474511843
H         3.07520739335589    9.53141290397469    9.62700993576305
C         2.17826384330308   11.46093226241026    9.38671881045341
H         2.74241825484914   11.94711568785827   10.17207771021155
Au        0.15335046260956   14.37756126373241    8.62099017694428
N         0.63399861400291   15.75862795220653    9.91582172563177
N         1.37151754728768   17.61336886812726   11.73552590528304
N         1.30976108244133   12.23211062541866    8.75125318617262
S        -0.54505839714778   12.80610654659152    7.05364973778586

