71
CSD_code = TASCEY | q = 0 | S = 0 | Stoichiometry = C34H33AuN2S | MND = 4
C         3.03742187270536    6.41050357361814   16.30761131175885
C         2.69963452491940    7.64699526228351   15.74237776066689
H         1.67742282031504    7.99032528442427   15.69252965736994
C         4.88518605246111    8.10387500471624   15.27897631913962
H         5.58930627069452    8.80812294860233   14.86236274848569
C         5.29809315064588    6.88090603532608   15.82591959037082
C         2.18862820367009    5.41201658352063   16.91926185410171
C         2.84688585183177    4.27691973533197   17.44502689884846
C         2.08573342527061    3.29290265793105   18.04666318486544
H         2.60606849228290    2.43452256527795   18.44044632233096
C         0.69851818978116    3.38198732880741   18.14851853088379
C         0.07682267359146    4.51618480256943   17.62488317437231
H        -0.99560254342223    4.62358017193916   17.68791324533086
C         0.80203689971155    5.51860706576427   17.01871858193731
H         0.29470549550276    6.38499784361327   16.61940128191566
C        -0.14483006807868    2.30110475614832   18.80134300320688
C         0.69145440193972    1.12247794594513   19.30519666294116
H         1.23115307531534    0.64731180319558   18.48964454697998
H         0.03507754458282    0.37908376453333   19.75333236057292
H         1.40424361365216    1.44121973543967   20.06183291778420
C        -0.89055708269982    2.90932458046858   19.99811317386919
H        -0.18028915006249    3.30929584895728   20.71879780905624
H        -1.48848471549604    2.14571260515718   20.49086125498783
H        -1.55331000612651    3.71325755406535   19.68917754772640
C        -1.15400654124147    1.76892187984001   17.77337269768657
H        -1.82639577412787    2.55072946425291   17.43067822392961
H        -1.75291635306782    0.97607995414693   18.21622446868901
H        -0.63093482860937    1.36434712813946   16.90938427945675
C         6.62801953452005    6.32514354732911   15.94200778281818
C         6.71782645704208    5.03545922035017   16.51783088216229
C         7.96618159478822    4.44314628160498   16.58240495954320
H         8.03063893953652    3.44484316460002   16.98237125035650
C         9.12926081234578    5.08588498254971   16.16355490131997
C         9.01065004528141    6.37619927341316   15.64700377857287
H         9.88918890044322    6.91895235978253   15.33322810802799
C         7.78116973128666    6.98345937301441   15.51619209160679
H         7.71323944198586    7.97436388840489   15.09062800023749
C        10.50120904539335    4.44952953744973   16.29956685370803
C        11.25181739792836    5.19193616528132   17.41491138346740
H        12.24509129899559    4.76756138589608   17.54415522830262
H        10.71206144735286    5.09605881654832   18.35508122184840
H        11.35488528895824    6.24917148828335   17.18235249405073
C        11.27100498244111    4.57219074551545   14.97663619110786
H        11.47411318753276    5.60795401536139   14.71993141736971
H        10.70077196334901    4.12193343373021   14.16663192089973
H        12.22476461893893    4.05480375488147   15.05486484375662
C        10.43233661383278    2.96577707146794   16.66954473343872
H        11.43858707434584    2.55223886771479   16.69502698689890
H         9.85448064663305    2.40766794811931   15.93623461305875
H         9.99307593502346    2.82289750161119   17.65325667325476
C         6.85680905748930    2.81811717035625   19.10160681022295
C         7.80103122252194    1.84225702542207   19.30644036952793
H         7.64063719337038    0.85236803349881   18.90663934641610
C         8.98825418163960    2.12483455078708   20.00781027619542
C         9.99082206106047    1.15040350265135   20.20249964130536
H         9.82296491859530    0.15329854846444   19.82171780139219
C        11.15173748710753    1.46383402783079   20.85165696645083
H        11.91577635380908    0.71338460832823   20.99381050848906
C        11.36480730519704    2.76223277942801   21.34046570558343
H        12.28878060455919    2.99200672426515   21.85073631347272
C        10.41025492221893    3.72689882164277   21.17315537960392
H        10.56805302574882    4.72821926205405   21.54925819511617
C         9.20343539957199    3.43753781587303   20.50623716629389
C         8.19731293612314    4.40784473743982   20.31038859671729
H         8.34850513621483    5.40269211544873   20.70576497470704
C         7.05129666599775    4.10663656665743   19.63669966284165
H         6.28187454866571    4.85461888405033   19.49558412154348
N         4.33678613662362    6.08414062462318   16.30951276341778
N         3.61461471122752    8.45749047161908   15.24393065253705
S         5.40614166820873    2.42875335427916   18.18330073967961
Au        4.86706401018637    4.38134366837559   17.14019828344220

