35
CSD_code = TASFOK | q = 1 | S = 0 | Stoichiometry = C14H14AgN4S2(1+) | MND = 2
Ag        4.52547977274376    6.24069998855604    6.51533241723889
N         3.11129452929180    4.57656260164368    6.86364094527176
C         2.02322328263067    5.02859182626996    7.46221244663205
N         1.16096243678573    4.02311141792653    7.70645849303553
H         0.24533768546803    4.11597475116964    8.12014471266798
C         1.73043707650139    2.87603091771791    7.24458322773905
H         1.24813376260440    1.92337955263380    7.31238507738891
C         2.94347409288116    3.23385009030320    6.72827140768131
H         3.69458979244916    2.62175675241278    6.27227073355879
S         1.73494099065132    6.71404797966619    7.83740086504856
C         2.62526934420949    6.85106279251192    9.46459195719901
H         2.40510596346811    7.86897424335829    9.77813670359514
H         2.14498644289542    6.15151984478715   10.14675822812042
C         4.08067830103512    6.56572520366102    9.31994580071490
C         4.51395550532044    5.25627316317467    9.53986799809690
H         3.80039124318897    4.51702438618536    9.87589439191627
C         5.83883321318298    4.89314993957481    9.37255124938448
H         6.14655852849882    3.87615306655661    9.55852100063076
C         6.77024620718310    5.85153913052849    9.00355316274674
H         7.81112441254029    5.58849907816012    8.89837404469845
C         6.36655777158607    7.16353236263304    8.82045725522397
H         7.10744650046904    7.91964095172415    8.60104232674452
C         5.02910857348905    7.54387774931547    8.96184862744179
C         4.68301650439944    8.97832586782139    8.74580094541281
H         5.54556693427219    9.62319813787582    8.90579958767594
H         3.85926447156356    9.32250655304633    9.36774148336671
S         4.07667790385520    9.31282203361394    7.02140510335170
C         5.53080293090625    8.97843135414515    6.10612656071459
N         5.92264465695140    7.77048103089186    5.74024216156114
C         7.06806288315444    7.94030704199869    5.02649148906927
H         7.59742561258315    7.10483843962898    4.61589294386668
C         7.36145886953826    9.27240097814219    4.95314186856061
H         8.16665741740201    9.78966277543230    4.47480313041634
N         6.38000974803604    9.91584513992274    5.64303381396507
H         6.27977663826434   10.91330285700577    5.75787783926407

