85
CSD_code = TASFID | q = 0 | S = 0 | Stoichiometry = C42H40P2Pt | MND = 4
Pt        0.37619966638129   -4.41278476911968    3.78836000491235
P         1.13387908439994   -2.87303875746233    5.42672102619745
C         0.74460689913868   -5.98384445950600    5.11346586060272
H         1.66022557051436   -6.54502356265125    4.88231255907347
H         0.88814458295410   -5.58290667673556    6.13030536645862
P        -0.23072985483611   -2.74720577417202    2.24702817333532
C        -0.44379839829287   -6.96674851620558    5.15979242418860
H        -0.31752989544573   -7.73846012006920    4.39835242589232
H        -0.47337565876819   -7.46534557405647    6.13429112209362
C        -1.74978238517830   -6.26175477344189    4.91966546662364
H        -2.34678417250384   -6.03873396493574    5.79652265220298
C        -2.20405410610940   -5.91442726249176    3.71945910967541
H        -3.16604583469374   -5.42011125034341    3.64195699886242
C        -1.52184221720312   -6.21249472972785    2.40801850988898
H        -2.01579162144604   -5.62769309714206    1.62696054002459
H        -1.68889182948221   -7.27107972701476    2.16800809736546
C        -0.01558081174633   -5.90272013948212    2.40130264692666
H         0.26356187512995   -5.56861861925683    1.38831274538694
H         0.55639294703093   -6.81700858839354    2.58723602668514
C         2.67949829708151   -3.55446288230781    6.12359325687215
C         3.49697792794024   -4.23273235729665    5.22340473377174
H         3.15321221484961   -4.35795855079763    4.20152915877967
C         4.70575860958527   -4.76005048178194    5.63410192169516
H         5.33548429934227   -5.28511039026395    4.93046372355062
C         5.10392179765207   -4.62234665807621    6.95450599036393
H         6.04608250707441   -5.03704235333351    7.28208384877978
C         4.28693569838043   -3.96328198973315    7.85734857188481
H         4.59097871444525   -3.86726860300305    8.88987829399555
C         3.07820979150178   -3.42689743862699    7.44685090550081
H         2.44390975012595   -2.92367883092950    8.16238834985802
C         0.12088130422864   -2.55917412465162    6.91222422515029
C         0.37377082722566   -1.52991915911846    7.81482589392614
H         1.20100912746671   -0.85335407599143    7.64855711872199
C        -0.44308253460791   -1.36468012593169    8.91860207402583
H        -0.24229073614185   -0.56595585539119    9.61844895601838
C        -1.51611194057274   -2.21627092976627    9.13015677498106
H        -2.15019101703871   -2.07956415581516    9.99409450139961
C        -1.77622866823942   -3.23705425991417    8.23124968851899
H        -2.61557532614943   -3.89855430549628    8.39037282585250
C        -0.96101562552220   -3.40537510593233    7.12683911079951
H        -1.15359547135954   -4.19506739257670    6.41157378243600
C         1.69661301622870   -1.16937933919115    5.06054235463213
C         0.75514397291245   -0.14372424006104    5.01162350366028
H        -0.28130729374355   -0.35919504160756    5.23192225484449
C         1.13781103181459    1.14620696256951    4.70039331858508
H         0.39689779203923    1.93254380948580    4.67285359105189
C         2.46633789599743    1.43040137548460    4.42915001827450
H         2.76773828870684    2.44045601638200    4.19330879684270
C         3.40513339365849    0.41369899555203    4.46000303354869
H         4.44210153016621    0.62858447716094    4.24606867699676
C         3.02460331785557   -0.87993187727791    4.76720317851928
H         3.76541528812483   -1.66637391285232    4.78722370537967
C        -1.49268504742595   -1.53893512152101    2.76263050277322
C        -2.05519906243831   -1.72839880948633    4.01950314890020
H        -1.72212568908458   -2.57031054501763    4.61738321284545
C        -3.03082457328448   -0.86870080956375    4.49109414102630
H        -3.45925890452379   -1.02202736275698    5.47135285753750
C        -3.45376914033274    0.18679935627416    3.70036146457199
H        -4.21130609822253    0.86575570658842    4.06394093624983
C        -2.92025770619122    0.36237189869211    2.43251910465371
H        -3.26907180818626    1.17366267455376    1.80955318167584
C        -1.95065434430201   -0.50124842113598    1.95650955067991
H        -1.56496190507934   -0.38493278161621    0.95278712367720
C         1.27968382435363   -1.79709120598742    1.87992019598251
C         2.43202401588416   -2.57966241678888    1.82544078071805
H         2.34283020716393   -3.64655201241682    2.02016468631794
C         3.65531892100648   -2.01034716917653    1.53160106584642
H         4.54412571712378   -2.62332756422404    1.48855155552405
C         3.73697358087823   -0.64762215846199    1.29363434741235
H         4.68956691638969   -0.19568914277883    1.05871666274147
C         2.59896163472486    0.13730984715129    1.36860461827460
H         2.66657468510743    1.20183021798157    1.19659404140305
C         1.37120480092164   -0.43016610666729    1.66296824088946
H         0.49513110155918    0.19622838647304    1.73787842849744
C        -0.82565210295168   -3.09845736584238    0.55661239447622
C        -2.18853995591248   -3.31862955260193    0.36777392229080
H        -2.86580289508227   -3.20991495059232    1.20489185923856
C        -2.67473514469579   -3.66724450905643   -0.87758990262418
H        -3.73378877487596   -3.83169125088574   -1.01527509605682
C        -1.80481830888332   -3.81236330637550   -1.94651129588827
H        -2.18436830423504   -4.08745811747868   -2.91950479024329
C        -0.44769420659665   -3.60857997123950   -1.76255649305093
H         0.23387285540077   -3.72593962264410   -2.59272226743027
C         0.04292577488780   -3.25777692376694   -0.51736390260869
H         1.10418831605533   -3.10337772633790   -0.38002217191605

