28
CSD_code = TASGAV | q = 0 | S = 0 | Stoichiometry = C9H14Cl2NNbO | MND = 8
Nb        1.01487317885493   -0.83687851616419    6.90280510087476
Cl       -1.23450692720271   -1.30876533477891    6.57547154946825
Cl        1.32590287992941   -2.34241191274489    8.61365716349222
O         2.06480048572612   -2.43753612822103    4.50749169590346
N         1.63951305309519   -1.70910043114758    5.51124632476570
C         2.35013289685674    1.17847319975805    6.95492373666421
C         1.04074712352326    1.53815280394307    6.52475607590917
C         0.17118051942756    1.38550804958379    7.63075647145039
C         0.91631664866787    0.91452256714659    8.71605569859291
C         2.26029799268240    0.78788730425067    8.31234757662156
C         2.16057135454225   -3.87696786870956    4.79063143118225
C         0.80083532792332   -4.38562767601298    5.26805734877016
C         2.54578635682537   -4.48850761474061    3.44798727339409
C         3.24402141013336   -4.10062200309566    5.84406942181214
H         3.26610384358053    1.36404483022629    6.40674867482020
H         0.80299665716239    2.04663741707350    5.59765711727927
H        -0.87638607204289    1.65650557414411    7.64605639713656
H         0.54329998489239    0.74687836906524    9.71735099559147
H         3.09855065124886    0.55334961727849    8.95686157693800
H         0.82568814964976   -5.46675672619439    5.36463029045277
H         0.54626189609714   -3.94866153956603    6.23678076715053
H         0.03069686234573   -4.10925910110986    4.55053292831166
H         2.67904424383185   -5.56065579936290    3.55456943413868
H         3.47225060532257   -4.04779379475130    3.09232988083624
H         1.76818345313224   -4.29636024514861    2.71505034017313
H         3.31242753088422   -5.15643320977349    6.08718457945781
H         3.00171213973315   -3.54249912561817    6.75046655692907
H         4.20549775316558   -3.75942270533632    5.46842359187328

