35
CSD_code = TASGAX | q = 1 | S = 0 | Stoichiometry = C14H14AgN4S2(1+) | MND = 2
Ag        3.33827995622274    5.86882230241463    6.89280943304832
N         2.02400990061611    4.29676764817225    7.71822252850760
C         1.04098259916332    4.84123310285366    8.41358611145166
N         0.24822412513118    3.88974064804910    8.94340123385402
C         0.75435182875282    2.68233468115324    8.57009946230451
C         1.86034676318155    2.94992231470263    7.81422240901809
S         0.78326690728493    6.56519236088424    8.57519511500001
C         1.94061671838911    6.94336450661375    9.97916377391962
C         3.36397317237706    6.69312382366161    9.61302016773805
C         3.91356099933925    5.44982439265449    9.93611297067610
C         5.21798347369182    5.12560530374057    9.60412003117979
C         6.01681402315368    6.06435670767988    8.96932451542027
C         5.49953696205422    7.31338441968895    8.67195172036930
C         4.17433657816879    7.64497249910398    8.96435354578444
C         3.68941794657048    8.99599792306991    8.56303942399323
S         2.87253879351596    8.96755544944120    6.89338121293188
C         4.22568488222038    8.48618690927299    5.89241998555012
N         4.59637786167245    7.23326776730101    5.69503605720959
C         5.65737885078183    7.27737386148995    4.84524604058109
C         5.92027929118271    8.57749298510392    4.51859412152595
N         5.00660521051991    9.33026160839442    5.19085757355917
H         4.90333801332872   10.33296137068038    5.14502116799054
H         6.66263278722039    9.00610957476372    3.87823268553625
H         6.15292455368355    6.38308617259716    4.52658666526472
H         4.50676215015518    9.71288722579123    8.50232571770798
H         2.91117279894130    9.39327942344735    9.21090745534938
H         3.31476282473271    4.73828823358522   10.48732487972535
H         5.61836498166836    4.16053444621223    9.87250856768022
H         7.04590566728807    5.83841463292701    8.73783262369629
H         6.14253903437348    8.06177110809026    8.23019542577194
H         1.72447524823531    7.98576125935251   10.20326271139602
H         1.62976885338222    6.32441031127744   10.81935812681652
H        -0.58849340030828    4.04949105614362    9.48431659102068
H         0.30554606356028    1.75440682664186    8.85708560882395
H         2.53773357974781    2.27141714304361    7.33708433959906

