119
CSD_code = TASGUQ | q = 1 | S = 0 | Stoichiometry = C24H72Br2LaN12O4P4(1+) | MND = 6
La       12.96163790912991   10.25860303493745    3.60971318934221
Br       13.05812136688766   10.05720980099580    0.86614103868822
Br       12.86944897937155   10.45936725086187    6.35326104264845
P         9.62525476495606   10.33781709452614    2.49125292969478
P        13.09162151116044   13.69529555735291    4.36071983268622
P        16.36763059116668   10.03299173165300    2.74767331668130
P        12.75734295674192    6.96888405621619    4.84677422083242
O        10.75924610692209   10.31327555042804    3.46239841336415
O        13.02399646883957   12.46341404072120    3.51947159635471
O        15.16842179479584   10.19399594251654    3.62272907416762
O        12.89482303637588    8.06455355435164    3.84139552308012
N         9.94107889298327   11.22043699639351    1.12438723212000
N         9.18291276592679    8.77119892162170    2.11433326090505
N         8.34572574880646   11.11012033201030    3.23876215617619
N        14.02968317790572   13.52449272106177    5.71644888717507
N        13.83542564070275   14.88090915004206    3.44768319993500
N        11.54316394733808   14.18685351453330    4.75082094802333
N        17.58696507815916    9.38426288203599    3.68806825337183
N        16.14424772363333    8.95836005877432    1.50571088556610
N        16.84456541497848   11.52974300583976    2.17842552999539
N        12.07280671688530    5.66025137482364    4.06490592872720
N        11.72321581625757    7.32759931758222    6.09154474422973
N        14.26984197617485    6.54376268678116    5.41480738351088
C        10.50383404472100   12.54750049418538    1.24362633119812
H        11.40729387757965   12.61982304473793    0.63074502009313
H        10.75530984347219   12.74177132888185    2.28550519983340
H         9.79028205226766   13.30627487358362    0.90534195282853
C         9.65883578263364   10.81489363785835   -0.23553136134745
H         8.97523794273646   11.52442530400910   -0.71259977355712
H         9.20370255067788    9.83071122913833   -0.24484258470237
H        10.58821343570606   10.77560288760845   -0.81003416376816
C         7.86094424838633    8.43574303944277    1.62773858904442
H         7.84696501978822    8.26202808732197    0.54669107149194
H         7.16498703468107    9.23394989686655    1.86290622089021
H         7.52274844665876    7.51971071823525    2.11990370996908
C        10.19758993856367    7.81265526388179    1.71723667919241
H         9.90820331786867    6.82324817018824    2.07828954381691
H        11.14809322219106    8.08076498554349    2.17361188654856
H        10.32731278361967    7.77152536263527    0.63120244903307
C         7.99642657389454   10.72552430601561    4.59010420488405
H         7.67437311602160   11.60605891177404    5.14987864581742
H         8.87520919664899   10.30301150969305    5.06933695442919
H         7.18919696091475    9.98587966484462    4.60971688501952
C         7.27655243146066   11.75978366832406    2.51405401100386
H         6.34270875878585   11.18877642316617    2.55896631125919
H         7.56379076955572   11.88814588071235    1.47419189069784
H         7.08637382829449   12.74416554679894    2.95109078591393
C        15.35014301613717   12.94491204806228    5.60499132321070
H        16.12241030705503   13.68526797575224    5.83908183656321
H        15.50378033016032   12.58676348645006    4.58783889097762
H        15.44484765390398   12.10871893090487    6.30427378723465
C        13.67797503625584   13.94782110600566    7.05460788251377
H        13.66402236824561   13.08378673597034    7.72436339084047
H        12.69371294964620   14.40277716328803    7.05573845517464
H        14.40419770259992   14.67651518849429    7.42869058520807
C        13.39218109876090   15.08581535944587    2.08468159303719
H        12.65466846710152   15.89185807883710    2.01080864092672
H        12.94632232216899   14.16387490296890    1.72169058337550
H        14.24785166373958   15.33919966842383    1.45538814380865
C        14.51822824212855   16.01749098963080    4.02413929049437
H        15.48304486642959   16.15280709572328    3.52714922418990
H        14.69120429344898   15.84299527326483    5.08241864484579
H        13.94774922461771   16.94490233959825    3.90326415493706
C        11.23346142138992   15.55467989101904    5.11151821164749
H        10.30239153462238   15.85016598391405    4.62003885988734
H        12.02711685634013   16.21531428218513    4.77903163125222
H        11.09882103217963   15.67990260114118    6.19097842344896
C        10.59563492198292   13.22668905097786    5.28573853257065
H        10.59413003421026   13.21088052644947    6.38017343142336
H        10.84282019472140   12.23181932752209    4.92142565433346
H         9.59477726117306   13.48489566350153    4.93263957153229
C        17.84092464898156    9.96243984678069    4.99085325142874
H        18.11558572566734    9.17380094330950    5.69442388874497
H        16.93303073681512   10.44721849024857    5.33901916313538
H        18.64992215236868   10.69979985411101    4.96087358713678
C        18.70096090979251    8.64061747844419    3.14380273607471
H        19.63261261610377    9.21633796517425    3.17116869383071
H        18.48741160139981    8.36058423280594    2.11602467219876
H        18.85388521916889    7.73143610441233    3.73216598109804
C        15.56653052136148    7.66059638149710    1.77789778791189
H        14.70559753523399    7.49671730965690    1.12286724826642
H        15.24492971451649    7.61845393280131    2.81774218476210
H        16.29655696328508    6.86355298435897    1.60160537588975
C        16.51958439006647    9.16345509546370    0.12347706314316
H        15.63130440604167    9.11583410365698   -0.51216976616131
H        17.22911371524791    8.39449061918717   -0.19830982114477
H        16.98075300227884   10.13736855912905    0.00236685902422
C        18.19909725982167   11.79551522151544    1.74075500510755
H        18.28865615935812   11.81010978260069    0.64951978308017
H        18.87190463306750   11.04245692425484    2.13703616201160
H        18.50858896950441   12.77460506336752    2.11668086137307
C        15.86593852344599   12.41681767516321    1.57727891176704
H        16.13661343177418   13.44918428031192    1.80948976905400
H        14.88472240941794   12.21486403646269    2.00143451381676
H        15.81110421371948   12.29889038290046    0.49055570019430
C        11.33897732609415    4.61869018004060    4.74811497516610
H        10.41321618292053    4.40937434771247    4.20464423328208
H        11.08828919273522    4.94622250500387    5.75321033876568
H        11.90917736024147    3.68516444293743    4.80776988990816
C        12.61411262133244    5.25929297670112    2.78337198822025
H        13.34852709435164    4.45322978851639    2.88342032748262
H        13.09318748719611    6.11938329798901    2.32371955685703
H        11.80549274793171    4.91400774930967    2.13580855795431
C        10.41913263340075    7.88168966709706    5.80164871706482
H         9.62620292989988    7.18653350176249    6.09702156678254
H        10.33700754959018    8.07483170582519    4.73282745962288
H        10.28559241232509    8.81754189127853    6.35271082889344
C        11.98077864890801    7.12087985851641    7.50029530122831
H        11.95176719479573    8.07837557558486    8.02721724083812
H        12.96098978984459    6.67885772464382    7.63973268225539
H        11.22785603753147    6.45377942560809    7.93193180236504
C        14.53779333531447    5.24706085990589    6.00129217669852
H        15.49666106719735    4.87832298470016    5.62678708159539
H        13.76070845874997    4.54451033857131    5.71950886805072
H        14.59664500742128    5.28878886375807    7.09384543446949
C        15.18896449824562    7.57399709785986    5.86169021306273
H        15.11394637636266    7.75858703798311    6.93794424004598
H        14.97987255267047    8.50095706095544    5.33194301511673
H        16.20891567437941    7.26324736919138    5.62465410215023

