105
CSD_code = TASVIU | q = 0 | S = 0 | Stoichiometry = C50H50N4Pt | MND = 4
Pt        1.58535595178323   -0.17588812361081    3.34632317586557
N         1.47013706713808    0.95419557206689    4.92615300710009
N         7.47111528335064    0.21194671727635    5.34191032931158
N        -4.43247113858508    1.38703688975049    3.62665929018779
N         1.75329012794967   -1.96209909447833    0.87942340772966
C         2.59001214812273    1.21248589101697    5.61888638417926
C         2.52258737514649    1.98534911870646    6.77877452333100
H         3.41062918093028    2.20022848153143    7.34996505841905
C         1.29525958683554    2.47330746613535    7.19110357180123
H         1.22546834058358    3.06929177502952    8.08986221933304
C         0.15751020541700    2.19899849405135    6.45310721583284
H        -0.80004252886000    2.57612522873740    6.77210323695329
C         0.26943810288472    1.42355160333272    5.29847449515151
C         3.79492047267633    0.62274153498708    5.03868557482422
C         5.05223158075418    0.80011555371957    5.60919990680104
H         5.17902392671427    1.38751270596559    6.50648421616228
C         6.13626093488251    0.19890971323401    4.99564599474367
C         5.96285801591482   -0.56403160224222    3.81737519571133
C         4.69720496277869   -0.71781940124197    3.25875970199115
H         4.59626789799421   -1.29648798799818    2.35120352352492
C         3.58393734754419   -0.13744857541732    3.85011625526096
C         7.26401608632795   -1.04166925203021    3.45109124533340
C         8.16202107456566   -0.54421379327108    4.42746798254690
C         9.51842246419641   -0.83378458038375    4.36168114933300
H        10.21203364235646   -0.46134825846631    5.10107295144235
C         9.96302726216907   -1.61827588396266    3.31523481332971
H        11.01447585151704   -1.85643371536027    3.24341124739928
C         9.08618340052395   -2.11122466273521    2.35076662875220
H         9.47408992355530   -2.72172643786404    1.54860365310327
C         7.73654766291985   -1.82914049829962    2.40930858929192
H         7.05765314211213   -2.21004836233586    1.66081959587914
C        -0.82073594810291    1.03699360748026    4.40505206009037
C        -2.12332771606917    1.49249629791941    4.58861475696764
H        -2.37159770506416    2.15729375290285    5.40272516264827
C        -3.09044811117750    1.07624665037533    3.69168297971439
C        -2.75741040573602    0.20429628879332    2.62896470111870
C        -1.44757083576066   -0.23705287567689    2.46522697246389
H        -1.22239539357453   -0.90473638707162    1.64551929110943
C        -0.44691499377598    0.16854415432787    3.33694422935601
C        -3.97069125197978   -0.02674025687862    1.90107733687229
C        -4.97931941241546    0.72027801347746    2.55808322296892
C        -6.28763187875752    0.71456120397385    2.09289328835963
H        -7.06440136803542    1.28145317854103    2.58454400393310
C        -6.57313575199069   -0.04113699754305    0.97234775610581
H        -7.58434357160546   -0.06076536773844    0.59222056938711
C        -5.58705850599648   -0.78019195309658    0.32160154122470
H        -5.85203104113247   -1.35966324536660   -0.55056027202620
C        -4.28421273042032   -0.77917322971302    0.77669698107306
H        -3.52031545691663   -1.35153986723638    0.27168751409196
C         8.04784565928500    0.82426718852301    6.50610649351561
H         7.40288836414136    1.64877915540554    6.82089784867667
H         9.02120682022993    1.24396076621336    6.23085354287598
C         8.22525111003314   -0.16949998772909    7.66168651541007
H         8.82100602621738   -1.01535582540711    7.31156875504213
H         8.77871342494268    0.32370892508839    8.46407798351043
C         6.88864969951438   -0.67641875296634    8.19675969671141
H         6.33837663359652   -1.16937236714157    7.39242860825944
H         6.29747023547421    0.17588535942443    8.53629142218784
C         7.07445937811577   -1.65800142167026    9.35090013967735
H         7.74304368603720   -2.45965330127637    9.02702210592871
H         7.55509722355677   -1.14617971986093   10.18868728812480
C         5.76059960919576   -2.27981858415908    9.82514791286166
H         5.98851923270595   -3.03905906614827   10.57717021743769
H         5.27690404039340   -2.78182942823422    8.98428783506978
C         4.79635527927241   -1.26396458009987   10.42729291966626
H         3.93248326529025   -1.77048858233378   10.85183605557132
H         4.43917179028424   -0.56945203507073    9.67132819861103
H         5.28401619678361   -0.69750873067192   11.21820826021145
C        -5.17157939190390    2.19608026480235    4.55500143488717
H        -5.88759650155700    2.80469966333473    3.99210570854709
H        -4.47572991080645    2.87286737985458    5.05711806875969
C        -5.92160544841563    1.35294948679258    5.59430394982406
H        -6.56658307285065    2.01215689549850    6.17962269850134
H        -6.55793116435684    0.63502111620351    5.07236095191729
C        -4.97471998280886    0.60148655478793    6.52614767823815
H        -4.35468691488099    1.31916664615222    7.06971007562071
H        -4.30941328333727   -0.03187852720013    5.93540059173421
C        -5.73337576623654   -0.26453026841480    7.52793694940971
H        -6.40311604932598    0.36590298730934    8.11863591930638
H        -6.35072208428073   -0.98492441644328    6.98609214640573
C        -4.79090884976358   -1.01547945277173    8.46515848399578
H        -4.17640862925727   -0.29622749395034    9.01192820320788
H        -4.11872543095348   -1.64087942523571    7.87341284855834
C        -5.55345073849218   -1.88582592767583    9.45632579284889
H        -4.86518790048210   -2.41029589311387   10.11499375235429
H        -6.15493599866425   -2.62413003847959    8.93046188484881
H        -6.21713399999720   -1.27734066928131   10.06721869212972
C         1.69193266942534   -1.27420882840154    1.83050731813498
C         1.83188028129346   -2.75777213953841   -0.21158282239195
C         2.78279748256140   -3.78885809311466   -0.23607540182094
C         2.84342018786611   -4.59374728065831   -1.36181728651852
H         3.56668078417785   -5.39495098826462   -1.39918195494232
C         1.99389660391082   -4.38035405182904   -2.43412385649362
H         2.05733804082952   -5.01574729052586   -3.30457507738895
C         1.06312892057487   -3.35612742287633   -2.39499281156187
H         0.40328803758633   -3.19603118335536   -3.23487347488777
C         0.96079052384013   -2.53050548310914   -1.28730349350470
C        -0.05264240292237   -1.43307715154339   -1.21304902807372
H        -0.48477632356443   -1.23961385404098   -2.19118177429643
H         0.39168863221810   -0.51597969929694   -0.82870267165706
H        -0.85605744901517   -1.71602439958329   -0.53229382491485
C         3.70350936790021   -3.98619885346949    0.92588800336998
H         3.15740786698283   -3.94607149697233    1.86746196379734
H         4.44907158939837   -3.19094198264112    0.94871487548360
H         4.22047535662644   -4.93912717817660    0.85139745110555

