112
CSD_code = TASVEQ | q = 0 | S = 0 | Stoichiometry = C55H54N2Pt | MND = 4
Pt        3.16045496405759    7.97087273877059   13.11383879835299
N         1.75161299795732    6.63965124221882   13.28137798087300
N         5.42424812702323   10.00887676606671   12.90497886653414
C         2.59787370727415    9.68326175027593   15.70998727119362
H         3.38607113265509   10.37838665961998   15.45289240885404
C         1.89723276161293    9.92603747726336   16.91378795707934
C         2.20701517795180   11.01244734404189   17.75614690240216
H         3.00580345926613   11.68188259124031   17.46740986812056
C         1.51484935070373   11.21903266881471   18.91731504872217
H         1.75998558913124   12.05453663093667   19.55753100212331
C         0.47919564924262   10.34872231300985   19.29067709956947
H        -0.05739668093884   10.52691879569167   20.21149472131393
C         0.15361853252929    9.28565382901634   18.49544046640950
H        -0.64353840092257    8.61139862332767   18.77772518299643
C         0.84999624143560    9.04748987814175   17.29287660416949
C         0.54104345932866    7.96647030177192   16.44676409013129
H        -0.26166413956020    7.30441864966872   16.74305241610114
C         1.24145492803826    7.76067817856194   15.28259698399467
C         0.95222624501209    6.66291118449724   14.35814598074937
C        -0.04454648897092    5.70470419894789   14.50950139278502
H        -0.67644401285082    5.70693664673383   15.38238418259322
C        -0.20663865957612    4.71983090894153   13.53823545216778
C         0.64071856028199    4.72811125510846   12.43344696536369
H         0.51957986548024    3.98594893290391   11.66145237127450
C         1.62319776806906    5.70718931541887   12.32286465845737
C         2.58603992501179    5.84638506147323   11.23281193872896
C         2.57966338525160    5.00620327257528   10.11574602856876
H         1.84808295106715    4.21624150477879   10.01945903284148
C         3.51570342781010    5.20711798193943    9.13026866817345
C         4.45965114048171    6.23627180193323    9.25771401495349
C         4.46481904351629    7.06512043786006   10.36984144881318
H         5.20816351515731    7.84621875000267   10.44112861289095
C         5.31345235446815    6.22015766214002    8.08195375476479
C         6.38338016267172    7.02439056914590    7.72644148825154
H         6.70923320692295    7.82721322616915    8.37108581232424
C         7.02822264246516    6.78039177206119    6.52468886796043
H         7.86549334064486    7.39726469927703    6.23088642900526
C         6.61200761913865    5.75254946834652    5.69301568316299
H         7.12872853211116    5.57787510990785    4.76026949857732
C         5.53768995264881    4.94543111085657    6.04449853765628
H         5.22025162501640    4.14798241545041    5.38784574666311
C         4.89076719640417    5.18172686217174    7.23797803019037
C        -1.24809699137217    3.69317090093607   13.67734929211250
C        -2.51932936303951    4.03154069208245   14.13484675571040
H        -2.74597268598156    5.06182687957228   14.36847877959764
C        -3.49864803451483    3.06437609939249   14.26222139438061
H        -4.48308959087574    3.34031314223231   14.61076322132928
C        -3.22039979815848    1.74548011276619   13.94403013956551
H        -3.98513263413243    0.99019642106726   14.04778834377156
C        -1.95792647065576    1.39860556786277   13.49251215822873
H        -1.73490985240032    0.37050304628986   13.24733983178096
C        -0.97927973708317    2.36502412489551   13.35512366827038
H         0.00921100127313    2.08679140354930   13.01907750845628
C         6.43261114297567   10.91024673547169   12.84354152300297
C         6.98325302935876   11.23462670128598   11.59454450267455
C         8.00963718944601   12.16375875711509   11.55264230926434
H         8.44380359626502   12.42757891281176   10.59964463668445
C         8.48400569072285   12.75056374284629   12.71332698894667
H         9.28571740500249   13.47165000268412   12.66254357064155
C         7.93547561869045   12.41452069052554   13.93893729897609
H         8.31140022676832   12.87409913758124   14.84102840053133
C         6.90313058422464   11.49474178404775   14.02885703727402
C         6.28594961574489   11.13817537678878   15.34334545496497
H         5.32227554352608   11.63841753664544   15.44544648584308
H         6.92251033884580   11.45363855798513   16.16571358375790
H         6.11021237712227   10.06590710796243   15.41574600140533
C         6.47675913073768   10.56801616820404   10.35556899036527
H         6.84625633988263   11.07253277493395    9.46674145579415
H         5.38782673109475   10.55677991612372   10.33473486237714
H         6.81905551141725    9.53265733947021   10.33257629850865
C         4.54207689660581    9.23511566032907   12.97382271493513
C         3.70857976579184    4.45488576814131    7.83463784582363
C        -1.15521591372954    9.07424328395593    4.23577734375208
H        -2.04439034441970    9.11499745108763    3.61072542784190
H        -0.34270589796783    9.57132143960335    3.71013466430711
H        -1.35445522481851    9.62394284036423    5.15319209166519
C        -0.78319938029105    7.63032987073382    4.54939952408644
H        -0.60308756399553    7.09129623478048    3.61625070583241
H        -1.61909342374681    7.14232531734977    5.05625126220045
C         0.46063939647734    7.54196760471851    5.43033875776123
H         1.29591369772595    8.03341482192014    4.92575732919192
H         0.27993860337177    8.07785516928243    6.36516301133560
C         0.84302356991525    6.09810016386053    5.74458210440781
H         1.02789944674367    5.56240694926347    4.80994451894109
H         0.00688891368756    5.60492409639855    6.24701532475777
C         2.08434293461884    6.01623637472649    6.62890563400636
H         2.91840219963211    6.51500821945517    6.12994229447933
H         1.89730993006406    6.54559796588345    7.56598325805353
C         2.46732907653746    4.56952751512164    6.93109687668437
H         2.66370335130102    4.04484012421415    5.99299069765724
H         1.62796463329594    4.07000857146880    7.42122747779328
C         4.02816667150127    2.97031077561599    8.08349779625904
H         3.15899223053324    2.49522545278568    8.54522244679901
H         4.20126506903989    2.48119435021660    7.12183668310004
C         5.24862856147954    2.76800675104177    8.97819907222219
H         6.11576798594171    3.25038871693891    8.52103013015998
H         5.07534851113711    3.24982578382906    9.94324848501643
C         5.54817296140682    1.28720517148446    9.19654902958527
H         4.67520871423700    0.81031388238286    9.64600758320475
H         5.72927528833026    0.80888927278789    8.23051434959206
C         7.17595239967709   -0.38067651922499   10.24265093053577
H         7.32998212422969   -0.81392334415169    9.25156296079768
H         8.13070791168949   -0.42274122227775   10.77250741177775
C         6.76707297845849    1.08510428825071   10.09368053050681
H         6.56121500258976    1.50463343890104   11.08123403687549
H         7.60702655194023    1.64127232630544    9.66969599418990
C         6.15432949307923   -1.21548162085237   11.00624383216965
H         6.52972847695484   -2.22496070651511   11.15922143678897
H         5.21772056795380   -1.28282676541968   10.45903445077542
H         5.95448414747749   -0.77295050015031   11.97986602577372
C         3.52739942205606    6.89810961089495   11.38743126360490
C         2.31568419356248    8.62668519426198   14.87789792464440

