37
CSD_code = TASVIT | q = 1 | S = 0 | Stoichiometry = C13H17N3O3Re(1+) | MND = 6
Re        0.52440381858693    7.59313463295209    7.27504670640217
N         1.88699598650628    6.75930227504861    8.89299565875399
N        -0.38372352062972    5.71110732615657    7.84434207464202
N        -0.41305328929545    8.45860884226476    9.14584819825524
H        -1.13190429378720    7.79932975828344    9.46304040075396
O         2.01027079628621    6.19406326824069    4.95005961518359
O        -1.74567260116041    8.53233628250138    5.39670878857677
O         2.10469290010160   10.21684682872363    6.84615943691407
C         1.45138659671479    6.73033546966427    5.78588213847980
C        -0.88510094329621    8.19758273992172    6.06570374699870
C         1.50214398088384    9.25779947735779    6.97214144055894
C        -1.64030469343517    5.34416801148535    7.58696522113795
H        -2.25825669638305    6.06894516307044    7.07324126144534
C        -2.14822450761905    4.10659419876678    7.93644016233169
H        -3.16951861241747    3.85763788056443    7.70074299898042
C        -1.31820134393117    3.20264764068294    8.58291859971842
H        -1.67592674083135    2.22546679533963    8.86552415611519
C        -0.01530558851211    3.58279394925731    8.85985125927743
H         0.66365755543356    2.91180134363835    9.36192666094654
C         0.41967865159894    4.84197858136472    8.47276975216082
C         1.83548652219613    5.29717019077781    8.71653440138171
H         2.43605701984625    5.03271138834840    7.83724262116743
H         2.26512955644737    4.77528653353727    9.58231803243017
C         1.31810989242572    7.10634119557164   10.21533148572505
H         2.09591312820362    7.09448194177449   10.98714666589446
H         0.56651578113618    6.35689912220960   10.49110757887899
C         0.64010738962675    8.47346429542897   10.17446299504571
H         0.22953247635373    8.70919151810327   11.16473430607828
H         1.36084628349559    9.25431757126495    9.91327360535393
C        -1.07456702166356    9.76917490155151    9.05914263287722
H        -1.47055026174306   10.07932181078391   10.03037472655779
H        -1.89298915495076    9.72179592947011    8.34300976721150
H        -0.36184144275891   10.51854480649918    8.71714545876085
C         3.28518923267306    7.20584353389544    8.82686589522775
H         3.90221858663580    6.68397803881215    9.56586243252210
H         3.34456593240373    8.27597624761458    9.01814154302769
H         3.68993862485800    7.01652050907154    7.83289757422656

