43
CSD_code = TASXAN | q = 0 | S = 0 | Stoichiometry = C8H24CdN2P4S4 | MND = 4
Cd       -0.77831982328014   -0.77804144159903   -0.00015123443611
S         1.73443557699290   -1.03878797018518   -0.43667099574614
S        -1.78124041141693   -2.02398039268974    2.00458440247511
P         1.91917234299370   -1.43879188564726    1.51666129905419
P        -0.26841208044630   -3.32205324145990    1.81479254579196
N         1.23464771470888   -2.78913646195429    2.08770784135470
C         1.44675842154616    0.01122589432086    2.54440226122631
H         0.35947040067064    0.12562668569211    2.57149695413270
H         1.89375082636535    0.91445263783000    2.12958964553360
H         1.81372196739885   -0.16501156362528    3.55507590812765
C         3.68827265210805   -1.68005121984949    1.85747546650097
H         3.81569186186168   -1.96119966245916    2.90017711804639
H         4.23155748928768   -0.76295284392574    1.63672931786679
H         4.04923727075864   -2.48169620947914    1.21466556817255
C        -0.49859064691074   -4.61406361303397    3.07258462064258
H         0.33412413583402   -5.31179113755318    3.02454660466899
H        -1.44223536975353   -5.12838671278200    2.89958709524550
H        -0.51850333025042   -4.13376296064594    4.04979091935773
C        -0.35598714959566   -4.22118709387047    0.21306802893841
H        -0.05461856945000   -3.56946948662532   -0.61187399320775
H        -1.37558690527974   -4.56704970674393    0.04461468977686
H         0.32814478488099   -5.06723363213828    0.26990713095179
S        -1.03860024238369    1.73441351922510    0.43672664588596
S        -2.02404758160848   -1.78144503491555   -2.00444168769999
P        -1.43882652956303    1.91907481674142   -1.51656946162183
P        -3.32205601957285   -0.26856723888243   -1.81473850526622
N        -2.78916422378341    1.23450890517451   -2.08759350279873
C         0.01107797041231    1.44679651323667   -2.54450597422540
H         0.12558525684565    0.35951801086718   -2.57149701447131
H         0.91430809274496    1.89393316951584   -2.12986347187837
H        -0.16533910063862    1.81362998735215   -3.55519153011216
C        -1.68027422082159    3.68817390821444   -1.85729554010115
H        -1.96157864241016    3.81556325335726   -2.89995814911694
H        -0.76318189244020    4.23151883909712   -1.63667745037193
H        -2.48184818673375    4.04909911753310   -1.21438217944258
C        -4.61394989151895   -0.49878679726801   -3.07267155974887
H        -5.31168360819453    0.33392738581828   -3.02471867465568
H        -5.12830009596982   -1.44242320917538   -2.89970413710762
H        -4.13360590832936   -0.51872068651019   -4.04985176755522
C        -4.22131748025381   -0.35606218824300   -0.21309642550713
H        -3.56957042374812   -0.05461553833287    0.61179785946434
H        -4.56715506235256   -1.37565198129233   -0.04455621531934
H        -5.06736336858484    0.32805726678391   -0.26997245277586

