53
CSD_code = TASYOC | q = 0 | S = 0 | Stoichiometry = C24H19N5NiO4 | MND = 6
Ni        5.74847661268035   13.10463003255403   10.30322980494699
N         8.10631430602994   13.01330158807643    9.64517545081216
C         8.58669095955105   14.36695872610277    9.44437059957563
H         9.38709825129875   14.43694180251869    8.69607531495631
H         8.95802165160554   14.78539890663090   10.38354035363805
C         7.38889346281616   15.28973295954281    8.98328666466401
O         6.23555688120670   14.78284198793379    9.04845555592374
O         7.66819440531986   16.42015125726415    8.62145164341306
C         7.93073981415385   12.30861869058440    8.37678744266391
H         8.84329979397778   11.78229979035349    8.05946422006480
H         7.65446963697082   13.03407972057924    7.60846756802603
C         6.74229709112520   11.32353104193855    8.46267444859488
O         5.71665222602606   11.76741730780577    9.07880889765862
O         6.81233976334592   10.22298822883694    7.94490522780637
C         8.83891269521565   12.19366691582792   10.60077783700444
H         9.63427490242983   11.59485340915318   10.12393717949968
H         9.30725764410229   12.84176336398303   11.35104592098141
C         7.86137126815086   11.29067212657388   11.28413176500107
N         8.10551891121801   10.01380882366826   11.66528991001907
H         8.94282038372549    9.48722088005454   11.47755219781329
C         6.95002611198273    9.52743822346565   12.23307264417102
C         6.60786689479814    8.30006794392647   12.77691725569363
H         7.31043701357266    7.48197990881736   12.81317604661584
C         5.32045452145645    8.16955326023672   13.25886117399127
H         5.01065199274849    7.22766753921435   13.68552208355611
C         4.40256825750882    9.22124099510539   13.20039900367233
H         3.40551089849553    9.06223808933448   13.58273940839736
C         4.73772212537969   10.44547635908532   12.66204284851014
H         4.03464423306545   11.26154841722067   12.59351988487753
C         6.03048232457461   10.59537859106730   12.17625989883813
N         6.64365177085943   11.67601298596345   11.59028456310867
N         3.65917818570918   13.47819928118769    9.98517285128332
C         2.76606219023312   12.99983253573435    9.14898284168569
H         2.95807330849061   12.00967846292396    8.75848905003701
C         1.62262106261070   13.71830661023341    8.77687561458186
H         0.92060004040996   13.28044547175089    8.08465942753023
C         1.40813492184497   14.96996201565803    9.30277049421790
H         0.53138141250750   15.54502215254819    9.04140029399833
C         2.35641551482131   15.51078008128925   10.18756443942596
C         3.48287758466533   14.71689731888148   10.48397076349899
C         4.51298565291505   15.22170296504964   11.33787857509472
C         4.37764016223394   16.50317097882341   11.90925402608170
C         5.42207307023803   16.96318397865124   12.72622286525979
H         5.36861251406318   17.94763773891946   13.16625765212287
C         6.50535046096675   16.14419652969135   12.93929883236543
H         7.32613494294214   16.46059028483774   13.56356086931594
C         6.55833969842170   14.89535070980444   12.31789116423447
H         7.41139185230291   14.24764543638332   12.46745275990272
N         5.60406501772954   14.44586392604003   11.52599714046923
C         2.25193296844498   16.80275642487907   10.77899383360396
H         1.38679528521735   17.40438977926636   10.54180266343550
C         3.21532425625169   17.27243231469989   11.60876842484874
H         3.13239309158312   18.25457512930469   12.05011260251060

