55
CSD_code = TASYAN | q = 0 | S = 0 | Stoichiometry = C19H29FeNO5 | MND = 6
Fe        2.19940753244818    1.99224634870696    2.28467593880996
C         3.64155598368088    1.06765001979123    3.21929167991491
O         3.61988677348853    0.06864782409007    4.11275812165183
C         2.38911105432812   -0.42194461516394    4.59621701444618
N         4.88273381340698    1.38819181252960    2.89015610808043
C         6.08133888626128    0.79447872294488    3.45249915341776
C         6.77338227691733   -0.18245506231391    2.49058315593798
C         5.82967888321235   -1.31320448663868    2.09218079609474
C         8.02951098992547   -0.73536811245284    3.15831029951850
C         5.07368795946994    2.38501647797001    1.85337099405421
C         3.79798793411791    3.16449560477372    1.62039635251421
C         3.14581559517079    3.89270799196983    2.63718412693710
C         2.29908695020688    5.08300952512241    2.20474406438443
C         3.70925516916313    4.08328285263977    4.04305289812644
C         4.62026386633721    5.32106153490876    4.23577164375285
C         4.89348685161047    5.51822113050094    5.72863287766677
C         5.94231769998194    5.10614969344121    3.52320863520584
O         6.76238747527314    4.31069982342287    3.91773430541868
C         6.14605654362848    5.94617717464167    2.28347033333467
C         7.49301751642516    5.70609902851220    1.61547820926801
C         0.92540245407804    2.54870284866664    1.22314835864446
O         0.04970050182139    2.78905483667008    0.51735835133708
C         2.21352048455377    0.54241882774990    1.28802519478467
O         2.18709622430385   -0.43636385397265    0.67701772650996
C         1.06865506323273    2.11250450517107    3.65506463472383
O         0.26473299235299    2.25364523124029    4.46753181131108
H         2.61193109878421   -1.37475747608236    5.07484587727795
H         1.96201981100899    0.26380999381931    5.33115281912427
H         1.67516181418059   -0.56827785389657    3.78152983530122
H         5.80583703708408    0.26559964848572    4.36609865403444
H         6.76743211154415    1.60819772413745    3.70974148479800
H         7.07218549617910    0.36344407300341    1.58924009934023
H         6.33025722467390   -2.00349062393656    1.41724303176484
H         5.50726656006623   -1.86455888597696    2.97265342902577
H         4.94650427688468   -0.92701600242390    1.58803580492444
H         8.55627858832501   -1.40192587069907    2.47998257074643
H         8.70259870129621    0.07117005950158    3.43959974253783
H         7.76842396036825   -1.29467232484303    4.05402657546954
H         5.35791843883209    1.87564854681056    0.92436282309415
H         5.90511513686911    3.03075818257393    2.14840750056221
H         3.71774981724175    3.54349951447468    0.60377973272975
H         2.91302974409480    5.98033519488412    2.10851279482552
H         1.82933099381243    4.90405290308631    1.24121166838558
H         1.51766982056076    5.28970326980501    2.93265306275628
H         4.27760180355609    3.21278818516914    4.36858004194853
H         2.86936894901304    4.20510398283411    4.73134537937366
H         4.12475304946347    6.21018782687828    3.84270579637216
H         5.50240261509008    6.40580157908291    5.88931851572483
H         3.96052997523342    5.63479752017911    6.27457597925855
H         5.42948173355084    4.65905391414742    6.12464823767956
H         6.04674751801447    6.99610891485607    2.57164736229936
H         5.32802813957937    5.71854474491710    1.59486585560408
H         7.61552234718754    6.36268552072273    0.75797877761767
H         8.29939328938259    5.89379443885665    2.32015790874323
H         7.57358247272683    4.67548761471241    1.27823585283356

