55
CSD_code = TASZIW | q = 0 | S = 0 | Stoichiometry = C26H22MnNO3P2 | MND = 5
Mn       -0.86805673580156    1.93953188027006    3.98424175531130
P         1.26134226219837    1.89513175111566    3.41498546169011
N        -0.86810198349973    3.54069463630525    3.98415567122598
O        -1.44720750449216    0.38920003614669    1.54003012512507
O        -0.86801360025462    4.72309684712623    3.98423828613163
C        -1.22139687524172    0.94304929534320    2.52606573210318
C         2.52989239550731    2.53704701794613    4.54235442301925
C         3.87393760459937    2.37438071392647    4.21235778363912
C         4.85012457805562    2.87481077178332    5.05065513791258
C         4.49200451897525    3.53882374801910    6.21541791849016
C         3.15712086963554    3.70207192316436    6.54399782549231
C         2.17325205373100    3.20091273807593    5.70887587496919
C         1.68172130921119    2.73677410431526    1.86449770133371
C         1.85772685579731    4.11773367688760    1.86312102918729
C         2.11488811591588    4.77514047364560    0.67473754499351
C         2.18849445904991    4.06064635443661   -0.51091449055770
C         2.00263685350911    2.68716819332487   -0.51218006005087
C         1.74662642349583    2.02177979669072    0.67244701996808
H         1.88609714981863    0.67987108090356    3.11436300617801
H         4.13886693566485    1.85673349232262    3.29910355109449
H         5.89313577762505    2.74785567884751    4.80005126519053
H         5.25913113601096    3.92756991344864    6.86879708267149
H         2.88113677157946    4.21786513397818    7.45193281148628
H         1.12397816806711    3.31637131020717    5.95959441144603
H         1.79274779590774    4.66579479463076    2.79533993592329
H         2.25520949239259    5.84613726453119    0.67126753860778
H         2.38805925428533    4.57693740119232   -1.43839259672095
H         2.05602692641756    2.13474005631691   -1.43895621720717
H         1.59145302815321    0.95018455286770    0.68381055204128
P        -2.99740912740681    1.89518253852715    4.55356676161910
C        -4.26596834093720    2.53702774393258    3.42617615288586
C        -5.61003333534125    2.37418150769555    3.75602496176658
C        -6.58618847741073    2.87473365165783    2.91775845440741
C        -6.22802477316854    3.53905307278493    1.75318223551836
C        -4.89312785865676    3.70243817014665    1.42472331971232
C        -3.90928811223118    3.20114408747413    2.25980495719943
H        -2.86000166514491    3.31673576537700    2.00920371420985
H        -4.61710890561784    4.21843248699910    0.51691055585562
H        -6.99512929363644    3.92786557294954    1.09981140130539
H        -7.62921257707299    2.74767511887508    3.16825574820140
H        -5.87500253764963    1.85638130850951    4.66917738377254
C        -3.41776714018477    2.73682379838757    6.10404945870051
C        -3.59417594873716    4.11772544362557    6.10540929178261
C        -3.85112750328698    4.77510951663460    7.29384836958982
C        -3.92408884411458    4.06065128348145    8.47956251013715
C        -3.73787705396682    2.68722191708484    8.48082667166400
C        -3.48210739883980    2.02185470035117    7.29614512491552
H        -3.32661680428133    0.95030336694536    7.28477482331178
H        -3.79077805673366    2.13482220589787    9.40764511936621
H        -4.12348123612292    4.57692964744782    9.40708342915952
H        -3.99175532442501    5.84606686045032    7.29731381553379
H        -3.52963746006130    4.66575785813119    5.17314506777955
H        -3.62213234474605    0.67988581497745    4.85411085855207
C        -0.51498134102177    0.94351510181378    5.44279966774018
O        -0.28941257551852    0.39012682207365    6.42919406462008

