63
CSD_code = TATBAR | q = 0 | S = 0 | Stoichiometry = C31H26CoNO2P2 | MND = 4
Co        0.39090279999284    6.32232058583837    3.78632920205348
P        -0.59292363171861    7.83387356395148    5.11008065414403
P         1.60704731576089    7.69901137303137    2.50246293300791
N        -0.85449759648470    5.67764240502201    3.01580117412065
O         2.55633202307564    5.31998882652628    5.49600385936455
O        -1.95048194428795    5.46881720576118    2.61980130054968
C         1.70643956107530    5.72653976759429    4.83027669243685
C         0.32615441192009    8.60693919064154    6.52733624907161
C         0.67503002725418    7.55277830481954    7.45019571394946
C         0.93448474300290    6.65789735362109    8.20156025439914
C         0.72821100940124    8.42039669500534    1.03355238587427
C         0.23519945775643    7.32050656600539    0.23820586741547
C        -0.15902912227269    6.38168370340279   -0.39103773202929
C        -1.25691545246446    9.28802382271876    4.23761312382998
C        -2.25489958499664    9.03321610850203    3.29680846244912
C        -2.77746318592551   10.05950288412675    2.53493847208128
C        -2.30274569800990   11.35290808819725    2.69759100057183
C        -1.30624276702292   11.61033118704596    3.62315258560150
C        -0.77927894705056   10.58427416389897    4.39040876234672
C        -2.06802315056190    7.27040250323869    6.01845025872465
C        -3.03308392162861    8.15941890490870    6.47974160150000
C        -4.11501222956615    7.68694291890591    7.19870430131424
C        -4.23642974346478    6.33229370475547    7.46525135769503
C        -3.27446113855564    5.44575186674295    7.01071074620427
C        -2.19294083581080    5.91355686180819    6.28692429964037
C         3.03040627747347    6.96481903958504    1.63414451193382
C         4.05911965990891    7.73993305766830    1.10949077060260
C         5.09574402897656    7.13392400963156    0.42439004736451
C         5.10835726938876    5.75864664087323    0.25348020326612
C         4.08284155430171    4.98496292355606    0.77129833706329
C         3.04737596579873    5.58656739342461    1.46270265292101
C         2.38376436718680    9.17157688069159    3.24612947436258
C         2.03375469422919   10.48534282059566    2.95731701468487
C         2.63896368933569   11.52889814487444    3.63854487541814
C         3.58877876365966   11.27384693205090    4.61233071889406
C         3.93816376427820    9.96451257862356    4.90985216543886
C         3.33492659030088    8.92190798950804    4.23513076328017
H        -0.31313205373477    9.34872632689800    7.01915911741070
H         1.23597485898978    9.08060230839432    6.14275539938536
H         1.18646314784349    5.88516084002313    8.86429163999877
H         1.42475865755539    9.03390897493828    0.45083755191219
H        -0.11341640872986    9.02608903279717    1.38748584745880
H        -0.52439788372921    5.57358454267069   -0.95083384687744
H        -2.61350577772952    8.02060668201379    3.16797187386326
H        -3.55123287242462    9.85313476881113    1.81011716924042
H        -2.70822659431719   12.15699685108062    2.10113342682703
H        -0.93278947732544   12.61652346901226    3.74965486071037
H         0.00537351978884   10.80338923461016    5.09949389073210
H        -2.94202046617128    9.21652789828384    6.26661399577813
H        -4.86781010342486    8.37686418336448    7.55205231928137
H        -5.08517389343162    5.96851671619780    8.02562232959734
H        -3.37087294894963    4.38982579367743    7.21611511110223
H        -1.43485113681274    5.23375858654739    5.91535141353937
H         4.05257254471424    8.81343137795871    1.24585753545507
H         5.89774966908388    7.73578146256189    0.02176170740442
H         5.92140691398270    5.29066534039189   -0.28191434654868
H         4.09394567576178    3.91297523520743    0.63975266081260
H         2.24023150368341    4.99756022241129    1.88387845198686
H         1.28951855611387   10.70664539099231    2.20682318951613
H         2.36383159596281   12.54781415725946    3.40628938954965
H         4.05513743393484   12.09175045181542    5.14154820372816
H         4.67606955813566    9.76009841252654    5.67182014397535
H         3.59152695710461    7.89620477237979    4.46718590262178

