39
CSD_code = TATCAT | q = 0 | S = 0 | Stoichiometry = C12H13N6O7Re | MND = 6
Re        2.07059279536224   -3.78587324155200    3.82616756369552
C         3.71002307751398   -0.07986937669961    6.77234399528979
C         3.73405337535454   -2.27243121726613    6.25888995455284
C         4.87327761425039   -2.50089108892171    7.03071363332701
C         5.48740280686993   -1.45586845377905    7.78905859501032
C         6.31868077818043   -4.50427174670059    7.42699754122692
H         6.80649513337728   -3.83047362951182    8.12982174091757
H         7.02699119977462   -4.78046309449519    6.64412647135164
H         5.99239322266685   -5.40603989063150    7.94591823913838
C         4.17904714467577   -1.86792134010344    2.97716773604668
C         4.27056443968448   -4.32155537048411    6.02254140958704
H         4.27126129261058   -5.34576274070201    5.70088918826964
C         2.88526663673045   -0.96123047099406    2.86531686921910
H         2.53727112766286   -1.02040362958435    1.82500651698892
C         3.24314346518222    0.48044131855517    3.25123030234989
H         4.00757069261040    0.45687304042258    4.03114064978546
H         3.67398740806018    0.99589836265835    2.38715926667287
C         0.45259342948815   -4.11326178715694    4.85014760845470
C         1.15455390302996   -3.95302836117650    2.12333886273539
C         2.49204686436814   -5.68644096753354    3.78883568626530
N         4.80655585518476   -0.24606287587683    7.57286732360391
H         5.19642521388143    0.55480807499442    8.05560217199399
N         3.17787688224921    1.15258447910022    6.65790075258147
H         2.53849412061985    1.29412296114569    5.88638465178944
H         3.70538368626000    1.95103408519864    6.96628432589007
N         3.13303559590973   -1.06711594514003    6.14686519939957
N         1.85750850180474   -1.53977848730769    3.74342214084028
H         0.93992301942851   -1.15907954727907    3.50884348747513
H         2.07338099566427   -1.21632846692998    4.70171338819207
N         5.18876016368368   -3.82257490058419    6.85666581112820
N         3.37012084627067   -3.42804755672934    5.64334297133546
O         3.94666973146544   -3.10354483736406    3.02518551089979
O         5.26950733938726   -1.32554568215117    3.02018965418416
O         2.15355873209550    1.21007643531070    3.79382587238011
H         1.52863631569809    1.40604340989332    3.08735885245129
O         6.44390689242271   -1.50500095199343    8.53265087169600
O        -0.48992718495335   -4.25228558500146    5.49352914985638
O         0.65895653329727   -4.01246849945063    1.09229322801249
O         2.77911035219665   -6.79506242418078    3.73016280540587

