53
CSD_code = TATDEY | q = 0 | S = 0 | Stoichiometry = C24H18N6NiO2S2 | MND = 6
Ni        0.46047347791630    0.21404500232406    9.58359929201237
S        -1.73703258326717   -0.31740281544461   10.96002643115200
S         1.05420792417821   -2.01953606567049    9.77108080459717
O        -0.92748666543567    0.65149470116883    5.91823115799076
O         2.37890161353047    2.33707380020607   12.31782917959301
N         1.94748742530164    0.75195278117819    7.99454867487177
N         3.00370429880211    1.86944130234961    5.68961252601584
N        -0.64855683091085   -0.06840675784713    8.08991345925782
N         1.54837367641768    0.56734626691556   11.07321352258592
N        -0.15647948115704    4.91704376554618   10.26877686710067
N        -0.01039465429811    2.20800351111436    9.71174150296433
C         3.21604483170067    1.13379892863790    7.93453721317124
H         3.81594501779573    0.99020210554069    8.82333511308845
C         3.74073160332517    1.69259591193875    6.77546596887214
H         4.77311669079602    2.00644824963396    6.71272532571544
C         1.74166483250679    1.48669077763278    5.74950496406540
H         1.13139126394532    1.62518057224880    4.86821764996818
C         1.19543232643883    0.92305804375318    6.90303765425735
C        -0.24447616000614    0.47764448732623    6.92121705835007
C        -1.87871226203803   -0.70578528111457    8.19430188080555
C        -2.53308828455239   -1.26251183854686    7.08362624426676
H        -2.07696992872823   -1.17387907720161    6.11241586746949
C        -3.74499009575646   -1.90689522490014    7.20991819695785
H        -4.21374403326775   -2.31920552862277    6.32896299299002
C        -4.36342558906744   -2.02870048527701    8.44496349427462
H        -5.31855714190360   -2.52140685124487    8.53910034563990
C        -3.73169836652384   -1.51268369530492    9.55924912122359
H        -4.17959431696823   -1.59819721941995   10.53808112567560
C        -2.50574859674605   -0.88002717244800    9.44053278154491
C        -1.10850231183795   -1.92313513996002   11.59527507553864
H        -0.43364362599260   -1.65500934294380   12.40946158804713
H        -1.96154779217903   -2.47034461740494   11.99982684374928
C        -0.41250898872181   -2.78325313731561   10.56216022087671
H        -1.08273237676070   -3.02312074359694    9.73507810334751
H        -0.06938263632505   -3.70858477313543   11.02741935422054
C         2.08567865731957   -1.75740130293929   11.21006796799571
C         2.72552667303711   -2.84665680190400   11.77161278425234
H         2.58480480102475   -3.82534843814783   11.33694974923029
C         3.53415207652077   -2.66820300005707   12.87796724687878
H         4.03340970209260   -3.51183741756588   13.32836609757777
C         3.69858318910802   -1.39005630347961   13.39165419836983
H         4.33018039453752   -1.23731679174234   14.25408999286099
C         3.07482552045390   -0.29967308074560   12.82179373615190
H         3.22114084574939    0.68374236496963   13.23464289853654
C         2.24168660802081   -0.45314216571093   11.70229665445398
C         1.65771477062969    1.85983921663352   11.45117287377498
C         0.74160690485395    2.75802696537568   10.66928179764722
C         0.65982793767350    4.12488698155144   10.93585087594201
H         1.27664560519485    4.56409248222485   11.70724861649255
C        -0.90407558243518    4.35959617296292    9.32974078624263
H        -1.57428942509239    5.01540531000348    8.79282967872824
C        -0.83538924605331    3.00187493326734    9.03984837292818
H        -1.44583169284637    2.55853643518887    8.26529806967832

