37
CSD_code = TATDAV | q = 0 | S = 0 | Stoichiometry = C13H14N3O5SV | MND = 7
V        -0.38918527543965    2.23189260770441    8.84815305709376
S        -3.33544370813187   -1.53912029119121   10.19418829897699
O        -1.65836950243401    0.71109978584499    9.29107942661207
O         0.57434137714703    1.97271660549871   10.01376651204138
O        -1.79166000192480    2.18233017796662    6.70820378426762
H        -2.41000439321777    2.47662672553561    7.40260421058646
O        -1.83150810471418    3.12761699594628    9.27163977015144
O        -0.90946403948082    3.88698053842648    8.71167811367046
N        -0.27116095314878   -0.45751630049655    7.92799588651867
N         0.28322957821556    0.72102336153749    7.77234742224390
N         1.19862159732344    3.05496070070457    7.79099148048014
C        -3.56447548055711   -3.22845891262448   10.03849008708763
H        -4.35321340296383   -3.70898418329297   10.58321854652116
C        -2.66503384624008   -3.80756414738255    9.19086332952564
H        -2.64833136782647   -4.85912568859922    8.96702175215623
C        -1.76678396279982   -2.87645765535040    8.64809066111154
H        -0.97534080089046   -3.11059443234936    7.96102084826016
C        -2.00148098757946   -1.59966543740897    9.09506614582737
C        -1.29408328143632   -0.37450275168023    8.78396046106121
C         1.28125815155686    0.87678537760371    6.95705625057343
C         1.85551808744016   -0.23863201508383    6.14017930408598
H         1.23967084255492   -1.12312838803009    6.27862483862875
H         2.87268597096639   -0.45896204789729    6.46217999193199
H         1.87580423351235    0.02890264150041    5.08477892366160
C         1.82669272239634    2.20952402063303    6.95833768669809
C         2.93908480447573    2.61845218236877    6.21162295568137
H         3.42030808215734    1.92695603048150    5.53897006924949
C         3.40860918131948    3.90763552137979    6.36384091899645
H         4.26733098225226    4.24691673884254    5.80389900579467
C         2.76673977755979    4.75458894534626    7.25764270109447
H         3.11645202516532    5.76099991821753    7.42027515944501
C         1.65951580133841    4.28206794761877    7.94907323904548
H         1.11961285789597    4.90262730581129    8.65270954663644
C        -1.72934469426360    3.19795318768271    5.72877324360912
H        -1.01359244943882    2.87285516458089    4.97229181715388
H        -1.39443191023752    4.14847494396387    6.15893578098848
H        -2.70786791053101    3.33802482617686    5.25622877253066

