43
CSD_code = TATDAU | q = 0 | S = 0 | Stoichiometry = C19H14NS8Tc | MND = 6
Tc       -0.80238491644271    5.66866786009287    3.32917847650832
S        -2.23085051628770    7.53331949263223    2.98227648036831
S        -2.01571733301217    4.52909999319394    1.78265515765332
S        -3.26744429857689    5.79749923749121    0.78618936964841
S         0.62821778006436    3.80790031774620    3.68876206284442
S         0.85264704506990    6.62594572661718    2.10127791640384
S         2.33110079216718    5.27013802929781    1.72097672659071
S        -0.05548999878819    6.75510841460068    5.47809471834351
S        -2.20265533324764    4.85154869706889    5.26108148385674
N        -1.49395705393989    5.93242552262751    7.57602785255885
C        -3.22129391422185    7.29463129511148    1.65521195570225
C         1.99111019447627    3.89892421670011    2.72252200273870
C        -1.26927135526712    5.85907623301543    6.24694429660367
C        -2.52929035279659    5.18281751761726    8.29703308317390
H        -2.38421700429646    4.10877987014972    8.16276491556129
H        -3.51866053874496    5.42395047995475    7.90270542101576
C        -2.41999835568759    5.55959005288868    9.72839068317461
C        -0.83241978632040    6.68138804444721    8.48347846202033
H        -0.97918346867319    6.98072478092988   10.62269446958613
H        -0.02160569809307    7.31532125901172    8.16588831200341
C        -1.34633213817084    6.48932508036217    9.74059559635770
C        -4.10308833590052    8.34965628859383    1.19912517374514
C        -3.93842386763759    9.65794414067311    1.66882324190095
H        -3.14356191885950    9.87159850259266    2.36629783193532
C        -4.77289730205011   10.66787943134849    1.23681787745161
H        -4.63055697511458   11.67204572582231    1.60672076816847
C        -5.78540083271047   10.39911858675569    0.32885842405000
H        -6.43555647772260   11.19183496264632   -0.00890593758620
C        -5.95815329764031    9.10772793007121   -0.14549528863756
H        -6.74590342073653    8.89168715287716   -0.85127148507008
C        -5.12819661311961    8.09177020419201    0.28160632991540
H        -5.27244790790776    7.08591721844170   -0.08328810741130
C         2.95847587609249    2.82060977252180    2.71513289841810
C         2.63840520885515    1.58237616515097    3.28406004529840
H         1.66091890389051    1.43796926534684    3.71714954039883
C         3.55554083980199    0.55195409846590    3.28163448708256
H         3.29186719949418   -0.39750892755493    3.72256330944971
C         4.80700006858393    0.72990383636971    2.71246102173447
H         5.52214830703917   -0.07863661175521    2.71094404947764
C         5.13562062276630    1.95064775199365    2.14295318254277
H         6.10898611841701    2.09594566186263    1.69930586334338
C         4.22442296439658    2.98654741148076    2.14144884316252
H         4.48829709085015    3.93832931055238    1.70530848788776

