105
CSD_code = TATHUU | q = 0 | S = 0 | Stoichiometry = C52H48P4Pt | MND = 4
Pt        6.22156945682758    4.33439592575490   16.81282581610732
P         8.25484355002715    4.13407074820357   17.94911867810175
C         9.14172221824062    5.65847441467828   18.42546027300257
C         8.94697058096217    6.75468543389077   17.58920544842429
H         8.29112543326324    6.64431810005663   16.73077086946303
C         9.55119736508280    7.96437397850072   17.86627610046833
H         9.39979019730891    8.80844259090304   17.20835776046951
C        10.34117680784109    8.09642299077756   18.99802762842060
H        10.80856872807901    9.04375653638746   19.22492394634814
C        10.51909257125478    7.01640123927254   19.84604680592318
H        11.12411496193498    7.12311327655290   20.73548378636180
C         9.92373833826652    5.79873188722623   19.56479349670987
H        10.06093242265916    4.96301819266572   20.23659118372264
C         8.54071715561394    3.02636775110998   19.37187025856297
C         7.42983119973900    2.72976181321926   20.15318278227369
H         6.47541527822282    3.16983802231954   19.88853621756964
C         7.53147997414389    1.87271112645961   21.23244652958316
H         6.65825176088135    1.64619845296251   21.82663538296905
C         8.75287821031872    1.29745015496457   21.53916957552724
H         8.83924467341824    0.62178375382847   22.37772838669725
C         9.86637825653059    1.58610935418662   20.76622067546167
H        10.82004391364066    1.13700585585999   21.00610818346496
C         9.76557882467872    2.44561319675172   19.68729629858705
H        10.64276014207746    2.66386933905509   19.09477552759730
C         9.46301377845922    3.41739615753831   16.72062502793679
H        10.48641283990912    3.68351076554224   17.00665744139631
H         9.35291701172101    2.33104620439941   16.80255626682465
P         7.38374123749313    3.96652979748187   14.84028903041050
C         7.53728513177783    5.15612078782882   13.46256872709182
C         6.86535627732409    6.36518226174846   13.57625306464230
H         6.25720372894426    6.54208280711336   14.45554728410427
C         6.96969049872567    7.32370219613473   12.58417594005570
H         6.43945169469595    8.26014347611400   12.68360667067933
C         7.75171191340120    7.07408031237974   11.46944319754794
H         7.83698063980969    7.81711556704018   10.68957422732737
C         8.42691695187593    5.86807722352224   11.34997848704116
H         9.03599354253689    5.67616484513098   10.47781755020082
C         8.32358489441613    4.91044942214779   12.34098454284945
H         8.84234845471245    3.96643343624149   12.24289275715970
C         7.09526390686827    2.41035426393237   13.94172762605336
C         6.35822452129731    2.38828844352884   12.76105582620277
H         6.06465881843871    3.32082566645772   12.29765942842969
C         6.00271923746516    1.18447120074146   12.18233638049221
H         5.43550045487511    1.17694731256006   11.26224504993328
C         6.36419827019129   -0.01100919325143   12.78027194804755
H         6.08122711026513   -0.95070222579726   12.32877156834693
C         7.07996134362392    0.00195739671682   13.96687075076108
H         7.35371813685931   -0.92960640636116   14.44266710621145
C         7.43456318831766    1.20358507217301   14.54770486947364
H         7.96696669053452    1.21472410927509   15.48932369303602
C         9.19587417123320    3.87686546361169   15.29124537596589
H         9.72103766254110    3.23360777518172   14.57718571280677
H         9.56764706509124    4.90050793948554   15.16666483294148
P         4.72702687436765    6.04869714292939   17.23832939840207
C         4.74581928228160    6.88803802581382   18.86486720188704
C         5.71515366012273    6.52751137195676   19.78961050617712
H         6.44870425307167    5.77759467427226   19.51094300697276
C         5.75014352874484    7.11995135036282   21.03895472664206
H         6.51194194453284    6.83460786280559   21.75034486106973
C         4.80988972273049    8.08063223275995   21.37026543613419
H         4.83214357690159    8.54799901727324   22.34422505942618
C         3.84063372752927    8.44936671167568   20.44936866166766
H         3.11081983297167    9.20368123148413   20.70783432968904
C         3.80657384297143    7.85852477321002   19.20068611031678
H         3.05933931339381    8.15872721935276   18.47778360490597
C         4.39869314266889    7.48324825514513   16.16477427393576
C         5.20612857833849    8.60668740902442   16.34495348201034
H         5.90778148563574    8.62140859583984   17.16960686299340
C         5.11502162130088    9.68322245238944   15.48571554159968
H         5.73943185590986   10.55177037924310   15.64022258182836
C         4.22550860573912    9.64836575668836   14.42245791552197
H         4.15090212497033   10.49058131400706   13.74967472063782
C         3.43939438247084    8.52654821389709   14.22024099493619
H         2.75329833350066    8.49147111550084   13.38558672985967
C         3.53004707514755    7.44551380532614   15.07867384712240
H         2.92486637007839    6.56900582499715   14.89625551240350
C         3.06240552200454    5.22551177529442   17.34695496832457
H         2.33234928470742    5.90327770073570   17.80161939516825
H         2.73836088248961    4.98261074145871   16.33023761441429
P         4.48864316292735    2.85636697720659   17.37567842766506
C         4.59639291566957    1.44296842049909   18.51738524534016
C         5.42245057416728    0.40560765467608   18.08606910860206
H         5.87060210013297    0.47785921065703   17.10205875915545
C         5.66441777823324   -0.68553264888497   18.89429410061893
H         6.30328794844805   -1.48608476900202   18.54961641335661
C         5.09189889706274   -0.74969455783587   20.15592496170703
H         5.28383205668275   -1.59868044098546   20.79583083064488
C         4.27813840647562    0.27970443746630   20.59535754643145
H         3.83096818509857    0.23132095441867   21.57875034127129
C         4.03108304002680    1.37502314639201   19.78476444425847
H         3.39513051455062    2.16971856397476   20.14672216693489
C         3.50748548475707    2.11823826657201   16.02311896867842
C         3.63235648852051    2.68411684851493   14.76040487832454
H         4.32096547920379    3.51328342236806   14.62783989721102
C         2.90788024815682    2.18695452900205   13.69387432042865
H         3.01061966306611    2.63269735419273   12.71495801803767
C         2.05787639224867    1.11008943016177   13.88250345440129
H         1.49617654232586    0.71078656729230   13.05026609061536
C         1.92954585864429    0.54040942568280   15.13944550604842
H         1.26589827354510   -0.30031499000907   15.28503512260781
C         2.64688894736899    1.04214422533198   16.20973665054185
H         2.54618382520388    0.59473754634323   17.18934263968809
C         3.18961218044164    3.93626586828761   18.14871299235062
H         2.23257479719057    3.40498701216135   18.19749380893946
H         3.52542022064418    4.17620637781390   19.16407596645078

