77
CSD_code = TATJOQ | q = 0 | S = 0 | Stoichiometry = C29H44N3Nb | MND = 5
Nb        5.98170822573244   10.34744442664971    7.09114593916838
N         6.14753862421546    9.30783424771715    5.17829417196773
N         3.77585550033887   10.04973506816471    6.73766655425799
N         7.71690797205862   10.39919351663539    7.42709080369818
C         7.44170815040373    8.84113423097522    4.85042508137549
C         2.39638021633534   10.95305782980177    8.58183841358838
C         5.59747871883713    9.61711034959096    9.24249228867605
H         6.49456565143327    9.37605323513011    9.81982349101526
H         4.95179582938320    8.73521464493623    9.29174631369820
H         5.07520184508979   10.41343701537622    9.78893091194899
C         5.23031547538247    9.26903108975363    4.22378972394310
C         2.91456843985425    9.88478480348684    7.84757888984680
C         8.32728266806167    9.66451259762232    4.14100323323267
C         1.59559439608404   10.69286153254272    9.68675757530004
H         1.20396014842458   11.52971642784840   10.24925837737095
C         5.86208144743980   12.62750599966931    6.97042979292455
H         5.64037672943953   13.08387228384490    7.94074027246734
H         5.06445843783091   12.91799565400075    6.27517560335726
H         6.78329712568027   13.09596643146823    6.61213688693422
C         3.91414124471853    9.69211781371254    4.37143569451226
H         3.30898527622820    9.66464646138298    3.47580603241725
C         1.28302326577284    9.40301141438439   10.07680852194818
C         3.21751129244159    9.97677143087849    5.55342895742839
C         7.84400526359402    7.56464017753467    5.25503321321819
C         1.78871079455489    8.35008854814499    9.32528244930972
H         1.55028769248421    7.33427272574341    9.61039416214767
C         9.57537113689598    9.16802528196295    3.79962785723414
H        10.26050702121827    9.79875858257694    3.24970629699303
C         5.58813049243275    8.64670130502683    2.89071240235908
H         6.37627037211632    9.20119429232113    2.38588353552848
H         4.72075466179867    8.60291581508173    2.23737777844284
H         5.95896179733928    7.63379557702508    3.05012284215484
C         2.58910222302399    8.56844780328842    8.21898660948657
C         9.04147962267921   10.45813043777958    7.90288462826708
C         9.10281367631105    7.10445075334347    4.89705775785782
H         9.40928643525501    6.11595544037673    5.20998982832136
C         2.68454068073716   12.37917485800135    8.21345969835764
H         3.52538209705276   12.75444830995427    8.80041732383792
H         1.82117441975537   13.00783247220708    8.42784471164836
H         2.93251637888756   12.47725092174464    7.15822312902267
C         9.97454873697332    7.88558405884838    4.15406473770939
C         6.93004714706664    6.73559925017399    6.10878926263358
H         6.75747304254446    7.25994802843580    7.05732622081014
H         7.37229794810440    5.76446708287960    6.31782895740884
H         5.96744507853098    6.58214759204553    5.61777686417553
C         9.55862289333245    9.03259154100639    8.17562489456944
H         8.87409330244093    8.52535499672775    8.85231284098127
H        10.54952593427582    9.06477117587849    8.62162115512257
H         9.60244411639321    8.47752973035712    7.24211034274225
C         7.95355101791112   11.08392178993105    3.82677536676443
H         8.80007949585899   11.61214790854580    3.39450142123570
H         7.65242321418531   11.58296683814753    4.75335420349788
H         7.11888379562792   11.14407189585464    3.12798121960690
C         9.04353541601236   11.27439559600263    9.21277919612138
H         8.63709497742656   12.26392652369537    9.01546902406896
H        10.05280934989608   11.36670190562203    9.60619476703306
H         8.41159803744838   10.78462473997221    9.94890628451593
C         1.71485011067940   10.10442043372331    5.41843268229537
H         1.22952155505367    9.17153061395404    5.70771231729476
H         1.43554859820590   10.33048003061536    4.39200999945946
H         1.32955570548182   10.88621375280854    6.07112126264118
C        11.32488840341987    7.37511868527215    3.74982186922894
H        11.56024133610223    6.44787675112751    4.26565717308983
H        12.09540989900339    8.10900503567097    3.97864810319351
H        11.35153417728850    7.18761818804912    2.67625151411051
C         0.42001342331626    9.13313991846077   11.27266854878038
H         0.08396642711080   10.06174493602116   11.72734267309074
H         0.97373326493369    8.56294199544369   12.01812131216123
H        -0.45423357107068    8.54805571503653   10.98855601402377
C         3.12471603692899    7.40648536704456    7.43100893285364
H         2.98105174929319    6.47684901221733    7.97774880275129
H         4.19113339845233    7.53590668887871    7.22846254428590
H         2.61610310564257    7.31755837997606    6.46909929817930
C         9.96388654354114   11.15167931171615    6.88271419357835
H        10.00630490798565   10.56721667374583    5.96897009707051
H        10.96694638240903   11.25034483017868    7.29034253184764
H         9.57372359491132   12.14027121802128    6.65378561584542

