71
CSD_code = TATKIL | q = 0 | S = 0 | Stoichiometry = C21H41ClCuN3SSi3 | MND = 2
Cu       12.16410467522824    6.79723466463680   16.05174351454435
S        12.63122029700894    7.03771151283843   13.93443168004339
Si       11.50599721727699    8.68164751659879   13.43578468809242
Si       10.70737693429951   10.70818060727797   11.24824547844964
Si       12.56491777642912    8.32223876277734   10.69378534765792
Cl       11.59386995093741    6.73953534248634   18.04835179754936
N         9.86294970521499    8.73725155026686   14.21860688073857
N        11.49172182347525    9.97908101706159   14.71404665411653
N        11.53942247202342    9.25570528116127   11.82505860638602
C        10.27556051713751    9.63133193187828   15.10272248029226
C         8.69793464178541    7.87320455119952   14.21081914441597
C        12.00440353567959   12.20156014142688   15.66262389101712
H        11.71383766060046   12.70957047569085   14.74524276473829
H        12.80031718002705   12.77311545635767   16.13305710414309
H        11.15409624469884   12.17984408792412   16.33932112332458
C        12.96076098365985   10.10938220930072   16.66346849335041
H        12.19485259557471   10.18301724684815   17.43107045432577
H        13.86853597258621   10.57947705023840   17.03208887454999
H        13.16224918232353    9.04862712053760   16.48854595824051
C        13.67948433239382   10.85485038785243   14.38165481312184
H        14.08599566954109    9.86036454372355   14.21666231420034
H        14.46428908876097   11.49320365185100   14.77847815501746
H        13.34461793008844   11.25272672944541   13.42690914967835
C         8.77140535114118    7.08033280266999   12.90454297424667
H         8.82163365049219    7.76090242774785   12.05764080321798
H         7.89496102439370    6.44623968037627   12.80040663293017
H         9.66030307546991    6.45459909395026   12.89799776995303
C         9.53168565076963   10.14556462307547   16.25871402802991
C        12.50807580803835   10.78516123345925   15.36304981319272
C         8.75207160591322    6.91262407923128   15.40526066707782
H         9.74152835489463    6.45157438810354   15.47486007859351
H         8.01000860799986    6.12743524856930   15.28747735289206
H         8.55952784105730    7.43564579756007   16.33847074867820
C        11.90656245869836    6.54233776125918   10.60888780371706
H        12.09354326363454    6.01500698470969   11.53670749216817
H        12.39837082302485    5.99207307393589    9.81323762353030
H        10.83792396822771    6.51418705920813   10.41690402066134
C         7.39397471374623    8.67822959524751   14.24743499204673
H         7.32625784029424    9.27493294479689   15.15335952862946
H         6.54954728813976    7.99402899950796   14.22512486407961
H         7.32491160191249    9.33621327473672   13.38346388303478
C         9.64656400598509    9.52623206300981   17.50015970082828
H        10.27964373128002    8.65918811918874   17.63130746850142
C        12.03615864716362   11.99364665133457   10.75915452255696
H        12.12475869179621   12.77774665949277   11.50631240569671
H        11.78301487104791   12.47794112555662    9.82125311852047
H        13.01408421611539   11.53873277170870   10.64265968070393
C        14.36457588853497    8.46180566511075   11.28834596326395
H        14.66661783522513    9.49429809157144   11.43840885781968
H        15.04388650827519    8.02133369837960   10.56575744309658
H        14.49866987376651    7.93552049186702   12.22628724712876
C         9.54594393549685   10.20697915971900    9.81648967001839
H         9.92152456177143   10.55293146248889    8.86022048513018
H         8.55731661896107   10.63790714015770    9.94660493897348
H         9.43157122460406    9.12992501641127    9.75137147500538
C         9.59968060229620   11.55160747540538   12.54284283512912
H         8.80257398416629   10.89901988823575   12.87902393359794
H         9.14053351400207   12.43549058814257   12.10902390105222
H        10.16363036404497   11.86831004858785   13.41146972861767
C         8.00414856078366   11.74482063427248   17.20752015581762
H         7.36653714025336   12.60818740517254   17.08743523625920
C         8.70446095711587   11.25849627372505   16.11836826350463
H         8.60937154145246   11.74286350903897   15.15847841353642
C         8.93972907020222   10.02197261557395   18.58309074001071
H         9.03922405562123    9.53030216224059   19.53813353709358
C         8.11995402875385   11.12835348634600   18.44258073005464
H         7.57151603346722   11.51092932823569   19.29019972535265
C        12.48962898807785    9.00536142449517    8.91939410189453
H        11.56566187067546    8.73991617004448    8.42133647532500
H        13.29834180468698    8.56333313900338    8.34719721743646
H        12.60166755977010   10.07949682797642    8.86311158341775

