71
CSD_code = TATLAE | q = 0 | S = 0 | Stoichiometry = C21H41BrCuN3SeSi3 | MND = 2
Se       12.48774751661417    6.58435687024883   14.03660721050277
Br       11.02319855520206    6.01302030059090   18.27123853045484
Cu       11.80624469402840    6.16738586722578   16.20995639124942
Si       11.60521062040001    8.49002260360413   13.49024502863514
Si       12.85350469136110    8.20027138380078   10.80201930833553
Si       11.24886306400024   10.73491831443577   11.41034946022704
N        11.64619636271645    9.69282714347240   14.85249009844515
N         9.92293718671006    8.71026815631574   14.14074438186418
N        11.85624865510942    9.15665715515646   11.93436299567796
C         9.59774861071111   10.01297573012064   16.24883810758340
C        10.36738444493217    9.48492122759285   15.11571994339231
C        12.69854916086165   10.30885798159198   15.63778894344055
C         8.66636731895819    8.00507215817719   13.97534028726873
C        13.94060441143576   10.31201446637391   14.74495523868641
H        14.23760914435363    9.29191296111414   14.51315846107038
H        14.76526675345205   10.80782284967011   15.24975017126088
H        13.72990052513285   10.82971798779410   13.81224568518342
C         8.79907046596722    9.79803566263231   18.50691446105009
H         8.75808799294504    9.22401801112587   19.41884976932203
C         9.52570797613663    9.29823625572423   17.43992545991682
H        10.02954972565854    8.35143251324790   17.54710382464177
C         8.93312262349574   11.23289222864967   16.14017185238813
H         8.98075098123100   11.79455264279459   15.21986187718905
C        11.99719492687414    6.53044727130448   10.49118858083030
H        12.06883736021098    5.87041964170945   11.34823706240850
H        12.46326711817441    6.02068098020588    9.65375517691051
H        10.94391913216558    6.65522264508866   10.25542627933767
C        12.96708631620588    9.47418237226951   16.89667457032013
H        12.14020081162894    9.54582063562389   17.59886400285906
H        13.86964017027735    9.82420546718525   17.39023152285799
H        13.10553938052441    8.42463060089518   16.63131904335930
C        12.34640950001104   11.74633173494277   16.03394255191826
H        12.16970318212232   12.35710581550587   15.15073663365293
H        13.17536442596734   12.17854905404511   16.58836036369714
H        11.46214030650353   11.77384975049700   16.66544917518345
C         8.21049241113881   11.72550012782270   17.21165316792405
H         7.69988538504092   12.67224755472517   17.11647755585643
C         8.14129254083947   11.01060771157403   18.39658600866771
H         7.57521231583820   11.39963367985823   19.22915002244394
C        14.60803154185616    8.07344100622716   11.52685030128858
H        14.99652331450465    9.04519545443019   11.81885103897650
H        15.29093646366304    7.65186483150867   10.79611030544325
H        14.63675544038840    7.43077981176761   12.39970755130635
C        10.14916868833668   11.62493996845797   12.68029665978656
H         9.26017644479405   11.05325658321106   12.91987758020594
H         9.82597266059417   12.57816092235834   12.27135344818828
H        10.67827170490469   11.82843965502849   13.60349769191770
C        13.01563294414361    9.02386930656435    9.09682120705397
H        12.11016782063159    8.92798192406612    8.51100782393991
H        13.80577496581847    8.52296031115733    8.54721344704745
H        13.27046886037910   10.07361124627529    9.14752133653372
C         8.52691798657108    6.92871385069497   15.05947199352993
H         9.42661325537820    6.31189527006977   15.09781831508819
H         7.67973002971858    6.28497329588566   14.83922057564025
H         8.37436352827634    7.37614522750301   16.03868381713133
C        12.75180754128535   11.88012432994021   11.11917700245958
H        12.82959755276612   12.63703249867598   11.89531305241937
H        12.66043901958167   12.40568669191276   10.17366069657684
H        13.68684352810265   11.32969863243958   11.10116351720446
C        10.15171290649475   10.46418866551110    9.87108937571188
H         9.96098046255364    9.41106125665304    9.69152464783340
H        10.61726874154655   10.86769544365800    8.97883269529293
H         9.19166693581672   10.96007138335528    9.98311751806450
C         8.73518531985571    7.34678551263415   12.59633162576581
H         8.91468601225280    8.09943281023422   11.83176672933158
H         7.80331238412576    6.83229027966903   12.37793969499284
H         9.54728545067235    6.62406537592202   12.56651940121868
C         7.46619856460688    8.95567947674160   14.03084017926195
H         7.39267051310198    9.43938551221824   15.00132273375464
H         6.55351470970715    8.39039855117712   13.86108740552681
H         7.54416794263733    9.71944939934723   13.25952142550327

