63
CSD_code = TATLAB | q = 0 | S = 0 | Stoichiometry = C26H29ClNO4PPd | MND = 4
Pd        5.80149225802431    2.07770156716377    9.30594974589626
N         6.94032854374280    1.98667146309092   11.13244367770536
C         6.07429968852675    1.05900849091673   11.89831421825846
H         6.58957908322424    0.78419486373966   12.83228870310894
C         5.83301377801627   -0.13968488927522   11.00634853015732
C         5.68569267311759    0.14271208893444    9.66220757982547
C         5.52729423652369   -0.91073571862334    8.74822834213859
H         5.43795850211087   -0.70103997345746    7.68883941927520
C         5.49760365899289   -2.20893400234308    9.18000807068795
H         5.38694412809697   -3.01792631652830    8.47117610067516
C         5.59951481624421   -2.52232772839981   10.54961197327793
C         5.54057585611405   -3.85627369031583   11.00374284812203
H         5.41762471923675   -4.64313445478027   10.27303041729607
C         5.63263831879007   -4.15061053149749   12.33397987323918
H         5.58686298058074   -5.17420749610702   12.67530109857795
C         5.78274742602060   -3.11545659615146   13.26833315595908
H         5.84477992960037   -3.35619712542654   14.31974868076428
C         5.84761864101259   -1.81255860071588   12.86071245988883
H         5.95007807267496   -1.03526020668209   13.60236609082704
C         5.76634099761583   -1.47004163752491   11.49190430244159
C         8.26637813740763    1.39702315621695   10.93111982864574
H         8.17708235467120    0.39484166583493   10.50950476404132
H         8.80818908575349    1.33101369826509   11.88474715924047
H         8.82907341665771    2.02394596712644   10.23802961473343
C         7.10550052623887    3.26733682206795   11.81748353678572
H         6.16982800639113    3.82761564671872   11.82346888243084
H         7.84693168791386    3.86054950819553   11.28169068550336
H         7.45438479057681    3.11338594380996   12.84826825100741
C         4.71972794503163    1.70103360809020   12.23101005684559
H         4.80179970535966    2.43200559158260   13.03204666147820
H         4.02778692124961    0.92237083778596   12.54691895498653
H         4.30881934330834    2.18747560596906   11.32917181048700
P         4.41174652920013    1.99004957149628    7.53429926657032
C         2.97266175560462    0.90362123801732    7.65282454521796
H         3.01186508640231   -0.11728720994686    7.99168706185788
C         1.84016793420229    1.56920564237950    7.36557471795929
C         2.06568884059794    2.95824969016825    6.95375858235739
C         3.36057634657732    3.32564599757073    6.96083365718435
H         3.74609967231276    4.29121373154741    6.68790391337819
C         0.46393276901026    0.99711076123392    7.43190608911557
H        -0.14958059187849    1.56489011342211    8.13021382712852
H         0.49717401396542   -0.03910664185391    7.75749885531006
H        -0.01561498338586    1.04306979732669    6.45479616516113
C         0.93243442180770    3.84431146349215    6.56023370790936
H         0.38149920218674    3.41183152758478    5.72567758547101
H         1.29925372733269    4.82447102323850    6.26877846298895
H         0.23820055349518    3.96269671529547    7.39145069769524
C         6.70429385538502    1.14479652344734    6.23963888766872
H         7.18013970001093    1.31016527688531    7.21089833722936
C         7.44271062826303    0.69970517381716    5.15805888278839
H         8.49941520266799    0.50666474516642    5.26924643637582
C         6.82858790316262    0.50585998183407    3.93051187547796
H         7.40793058702428    0.16191143510868    3.08629522071658
C         5.47394205061931    0.75571005258582    3.78178449218600
H         4.99887905198405    0.60506138382990    2.82331054433257
C         4.72837930629117    1.20245470459948    4.85855886133563
H         3.67146413287153    1.40274797483453    4.75295752604015
C         5.34462517805973    1.39897814116257    6.08669250779123
O         5.65141268886344    4.34540953400333    9.37566036922004
Cl        6.67305133390376    4.39745139222563    8.36661079636781
O         6.14014717272029    3.92751783189399    7.12952468100004
O         7.10643665165844    5.73135296347084    8.22964519967692
O         7.77658905034238    3.57414190636807    8.75607275199357

