41
CSD_code = TATRUC | q = 0 | S = 0 | Stoichiometry = C14H12F14Pt | MND = 6
Pt        9.44652619217870    6.74690603286061    8.07245984234621
C         7.67995727441163    5.63015527813290    7.17679130691457
H         8.08149747190604    5.22165908956416    6.25071340532282
C         8.04446791369640    5.02148967708044    8.34799881572294
H         8.64975480973591    4.12035336396667    8.28232227880651
C         7.44312997504448    5.22302891051168    9.71262739162721
H         6.61199403484736    4.52380123589548    9.84124337315903
H         8.20715756150323    4.95164915782856   10.44711989318915
C         6.97017179555827    6.65857400221378    9.99987037564543
H         6.88870286830449    6.77538370867429   11.08143291268270
H         5.98065950733191    6.83589087083285    9.58160563840324
C         7.93542091957789    7.69627375491642    9.48311188471715
H         8.55728333651048    8.15707012728376   10.24900898734444
C         7.86298949365023    8.32013841703416    8.26640328315493
H         8.36641668754631    9.27811502659572    8.15906958684383
C         6.89812362502336    8.03848925375681    7.14655926004888
H         7.37172956374786    8.37249169150365    6.21865605792022
H         6.00220920229727    8.64985915870430    7.28735650197811
C         6.50506395240427    6.55876796931839    6.99519460721312
H         5.71311117188958    6.29081967502946    7.69269491200826
H         6.10943542628873    6.41757493336144    5.98842169521594
C        10.90010028814019    5.49600932280997    7.34383717264190
F        10.34847616136715    4.49691148823916    6.56189765947904
F        11.80847749860759    6.06547582184449    6.51213831316813
C        11.68763905003979    4.78837777682490    8.49263869238701
F        11.06674246972558    5.07572723960762    9.68150954879000
F        12.94525109319761    5.23423375541190    8.59519297273807
C        11.75494438540071    3.23887939934495    8.39093822710545
F        10.53472566704156    2.69599576649259    8.47751006147410
F        12.47148706109797    2.73762786725899    9.39425259112007
F        12.30601531357532    2.83434806699662    7.25609304466279
C        10.91958403842812    8.14978445577700    8.34004415555379
F        10.53960552584040    9.09194110172167    9.27919485833518
F        12.09779721090546    7.68992714158656    8.83102197717237
C        11.22909068057246    8.92629146428631    7.02030835471394
F        10.29200789266144    8.57410960991382    6.08252504111409
F        12.42414628842639    8.60475766108806    6.51123806054491
C        11.17915878255693   10.47536298470046    7.13869229860823
F        12.01577996368409   10.93514677955244    8.05729789245611
F         9.94737277681429   10.89571948081530    7.45036504115607
F        11.49689506845615   11.04158148066691    5.97694202651414

