68
CSD_code = TATTIS | q = 1 | S = 0 | Stoichiometry = C20H40Cl2O5Y(1+) | MND = 7
Y         1.15860715882451    9.73297050669368    4.13739520282026
Cl       -0.40782620100628    9.69558929079681    5.98564843830494
Cl        2.72406035714246    9.74053465074881    2.28832903345099
C         0.25945385856517    6.47125905637569    4.81154987768657
H        -0.67522037130938    6.50271999884069    4.23938978047696
H         0.06866857928705    6.85927640184208    5.81616634188349
C         0.85514838679688    5.06834930397348    4.80111550796975
H         1.50167585511232    4.91615652580570    5.66560865006745
H         0.08732084823604    4.29952564387231    4.80215276679143
C         1.67867586751255    5.09035355422465    3.51561023008534
H         2.46818909211788    4.34400533354886    3.50260032914756
H         1.03765716074357    4.93578306556731    2.64741977874710
C         2.23207842211859    6.50941239465056    3.53271392685695
H         2.44145679626726    6.91443002143738    2.53882202037624
H         3.14681713654846    6.56145144590737    4.13536380231846
C        -1.98912559713557    8.90786137835425    2.91182918483625
H        -2.44418612952648    9.82829359021941    2.52245232429489
H        -2.12069768941663    8.87345603780057    3.99627955327435
C        -2.55471213203355    7.67665469878954    2.18128414843005
H        -3.42636603837593    7.95159600378471    1.59126798335538
H        -2.85670327771855    6.90057982179531    2.88167516794380
C        -1.39654984743176    7.20868925784867    1.28471494090192
H        -0.91699173308458    6.32322287777237    1.70058207119299
H        -1.71812559643725    6.98112946698615    0.27213739884834
C        -0.43791162321311    8.39641149102176    1.32220329651845
H         0.61098031052247    8.13946051278512    1.16593351940100
H        -0.73657295148371    9.15366429193278    0.58451153525860
C        -0.89222413366684   12.50649386105640    3.94231805037383
H        -0.30763681494080   13.07290646906566    4.67744481071665
H        -1.61423625679749   11.87899319264155    4.47317746349258
C        -1.53007644838804   13.44137644036932    2.92023781767471
H        -2.42190463834737   12.98871387618915    2.48663273975992
H        -1.80222114101542   14.39802543435487    3.35749740201859
C        -0.42729803165265   13.55365580072574    1.86993491279465
H         0.34313196072688   14.25270661899325    2.19678533205771
H        -0.79484234711015   13.86699180465381    0.89683781909177
C         0.10795522818963   12.12836949849917    1.84999690509577
H        -0.51706965358685   11.49516891550662    1.20732512358414
H         1.14891242813817   12.04250813388219    1.52628311495745
C         2.07809166210292   12.22813790943525    6.37320532596797
H         1.04549059021993   12.07984092173416    6.70099710165955
H         2.74563839502154   11.65539051577955    7.02986378333878
C         2.51583684013880   13.68521382553313    6.31614514196642
H         2.85692129414179   14.04904268200278    7.28126379454507
H         1.70141718306253   14.32135000963543    5.96806140420869
C         3.62852026169528   13.61864698150738    5.27240002768169
H         4.54700397572523   13.24057966579566    5.72148251624479
H         3.83699270639104   14.57897893340882    4.80895884890963
C         3.06158792555459   12.61390748953632    4.27469933672846
H         2.45018834937908   13.11849316972713    3.51689137727464
H         3.82780355012726   12.01784644826531    3.77015447748925
C         4.34024888803911    9.08409607832633    5.37917841231451
H         4.75334496619309   10.03426086018165    5.74300095826662
H         4.47229553301214    9.02669197638310    4.29579734092595
C         4.96129765987474    7.89978846399354    6.14147879824843
H         5.82124854343050    8.22913558400960    6.72061788772243
H         5.29583556612565    7.11879852315680    5.46171143833904
C         3.82701893541132    7.40608557735772    7.05470054050800
H         3.38673234040272    6.48820703776373    6.66645690523970
H         4.16040911977332    7.22269887965364    8.07241762664999
C         2.81594411707615    8.54812627651132    6.98611976614473
H         1.77991805953328    8.24899388775053    7.15279158560393
H         3.08143303088396    9.33875548980643    7.70110390296572
O         1.22163210555070    7.32948078889047    4.15893039350029
O        -0.57891114769287    8.93318845510762    2.64298574979305
O         0.01335866384356   11.65011535774776    3.20841465400164
O         2.20370040974054   11.72448368396166    5.02682446250537
O         2.93060968207087    9.05281785771125    5.65021813839621

