81
CSD_code = TATTOY | q = 0 | S = 0 | Stoichiometry = C20H47B9NOSi2Y | MND = 12
N         8.42169114138871    3.22939452300924    9.11234116387866
O         5.07145314514897    2.92412708014211    9.40285477108863
Y         6.45116706297414    4.61189861663392    7.69871305040828
Si        3.59419714050636    7.04804406353848    9.36890053909470
Si        8.63000487681761    8.02601527384442    6.68115238838456
C         5.61675817549170    1.98043167191571    6.62176838197891
C         7.14794337300310    2.08850249387023    6.45614571999965
C         5.03763916295835    1.10536721652900    7.73507050428676
H         4.29716830330058    0.42047211619739    7.30976789011582
H         5.80985412514444    0.47909689043865    8.18584850065467
C         4.29640301919689    1.85168154075939    8.84790456904690
H         3.35331205776642    2.26144606632007    8.46356333520378
H         4.05530755372879    1.14185072239645    9.65272393544522
C         4.51469807780274    3.35304741655652   10.63347814478202
H         4.59442257524625    2.56118589036889   11.38936255027877
H         3.45961400673910    3.61920735265414   10.51566843411099
H         5.06862787975532    4.23167889202699   10.95748293293734
C         8.09704033028394    1.35251466560514    7.40157157588666
H         7.86894646110149    0.28045492065747    7.42706898098080
H         9.10471081142036    1.43178054350274    6.98521871504575
C         8.13758854417263    1.80273714915719    8.87252703638677
H         7.17670623060977    1.59412446020300    9.34779124461412
H         8.90000550238922    1.18965449879776    9.38681284539060
C         9.80306240164636    3.53622724714459    8.72788466868816
H        10.51570753839174    2.91060458482047    9.28383614845135
H        10.01634894392784    4.58233439532804    8.94410320831830
H         9.94794626530256    3.36886645582968    7.66401866984684
C         8.30970207009422    3.46341733777791   10.55603367464134
H         9.02205698869163    2.83897547307984   11.11538224612137
H         7.30408904751269    3.22613162881457   10.89838870617611
H         8.52142416648252    4.50721670137392   10.77950348546537
C         5.39672098785170    6.78859103676111    8.93449744015723
C         6.47556861902785    6.37598210069041    9.77809594412963
H         6.37461062984324    6.08153547269470   10.81562159766636
C         7.68332232682512    6.65509597599813    9.12445828320806
H         8.67136674298678    6.58570738824682    9.55953506994246
C         7.40026143088660    7.24676228638408    7.86223299894607
C         5.99667069440233    7.31988086501450    7.76565246371343
H         5.45707468491194    7.79771930301285    6.96237952499673
C         3.05768584763218    8.80846052514970    8.85708567725712
H         3.14488026883356    8.94886424058696    7.78481008388007
H         3.67412081702791    9.56242112651046    9.33590003429161
H         2.02477115449704    9.00253583158611    9.12996322593871
C         2.45489466638107    5.82053209337698    8.43446552579482
H         2.54082094445666    5.96471412880135    7.36093770055591
H         1.41234363959645    5.96801642202693    8.70114165387317
H         2.70134348989815    4.78247334014704    8.64076732420503
C         3.28712830258962    6.89119602461670   11.25417117013319
H         3.98257755521193    7.51168692865558   11.81007018554783
H         3.38690931485017    5.87483541281952   11.62076178505794
H         2.28473143731838    7.22684967426510   11.50090323160794
C         9.58131222299359    9.42002077697772    7.58783476179898
H        10.27718044637556    9.91958336816673    6.92083907357290
H        10.15236299847785    9.03049149626911    8.42498679160539
H         8.90206097612089   10.17057655299233    7.97923749950319
C         7.71318753181437    8.76377583636407    5.18034455404260
H         8.40949993711303    9.22944856353318    4.49033460537867
H         6.99871626020345    9.52138965438667    5.48522758433009
H         7.17392288704195    7.99661559324790    4.63382270460156
C         9.92262353308701    6.76806986090309    6.03832292489278
H        10.71810617963818    7.27551959469437    5.50109686906970
H         9.47144649815061    6.05303475006525    5.35721487797228
H        10.38446974627876    6.21245491117928    6.84979199845632
B         7.60681667985591    3.53719281218460    5.81224710970657
H         8.72951356513494    3.90954513050014    5.98142089183557
B         6.09310113479116    4.47951157017253    5.44034829373150
H         5.98659171016408    5.65038323981267    5.19249294282033
B         4.85259137210189    3.36297772916790    6.13961804070946
H         3.78456720390252    3.62962165025703    6.60202649151794
B         6.29483589344213    1.04275670404759    5.31435327193592
H         6.38520566333064   -0.11909245845712    5.48579252084010
B         7.59209718630829    2.06128655861307    4.76249259242276
H         8.62875582508855    1.58164578071125    4.47263673698029
B         6.91174914148394    3.56803190115162    4.15406932365993
H         7.42957441399007    4.15838970017844    3.27372491320810
B         5.12744438998441    3.45696034850588    4.36001517140971
H         4.35700251840606    3.96930588694277    3.62890045764413
B         4.79419180816427    1.89523833462200    5.07480772060479
H         3.78884161259165    1.28117968788777    5.03270986327696
B         6.07301286703806    2.00978255009104    3.86902719297084
H         5.98361726293182    1.52445384816011    2.80202328090095

