61
CSD_code = TATVEQ | q = 1 | S = 0 | Stoichiometry = C26H31IrN2P(1+) | MND = 6
Ir        3.39347261382011    3.94193587330712    5.18480219127178
P         4.12228238203974    4.09413818065466    2.96885991150309
N         6.12650988340256    4.97551542097131    6.25283756073282
N         5.19974356431986    6.30059105814865    4.83916758549042
C         2.22923970938003    4.84309225111565    6.77247983127386
H         2.66540183637558    5.79820810338637    7.06229972609107
C         2.82733970140687    3.69076832910954    7.27689310212937
H         3.68377723703721    3.84294552018237    7.92768735251588
C         2.09004315628324    2.39257319080990    7.52638524967642
H         1.05635618000526    2.61225961772245    7.79151979131084
H         2.53933521088890    1.89047263668570    8.38418231625367
C         2.14713267528290    1.43608458757999    6.31868266995249
H         3.03591599003173    0.80716912911673    6.40364962123886
H         1.28193349375808    0.76664568971543    6.33362752373749
C         2.19904001684762    2.14598892246756    4.98960513483391
H         2.65541030542318    1.55676811800332    4.19264763934982
C         1.39022003479595    3.19745148655120    4.61809399846072
H         1.26834070129959    3.38770071789656    3.55519261565446
C         0.29803335878989    3.77522649050290    5.48392195839644
H        -0.11042734895834    2.99127583350869    6.12058928670550
H        -0.51367291505356    4.12357802861254    4.84390588429918
C         0.79180389403698    4.95979453691254    6.33524671211238
H         0.68509914827188    5.88206109105605    5.76007087417547
H         0.16142528497964    5.06580092481744    7.22332233010890
C         5.01278263330429    5.13784282712156    5.50879485649834
C         6.98782150434257    6.02248402967495    6.05814131462276
H         7.92902250018457    6.09116791251474    6.56233653436834
C         6.40649276884928    6.85376970673152    5.16293765278755
H         6.74922154590127    7.77867893472579    4.74795510185730
C         4.31738956941929    6.75912127297126    3.79639819690641
H         4.55167563598718    7.80132161388195    3.56830545721619
H         3.28630572082047    6.69495088103427    4.15728111275975
C         4.48686352147897    5.88141730938747    2.55130968390600
H         5.51402235403786    5.95840127458135    2.18671565965349
H         3.81410501334117    6.22524830568371    1.76532037245081
C         6.42733453252870    3.85940945337447    7.10898872161740
H         6.44229983761941    4.17170062001744    8.15473607420479
H         7.40605218520128    3.45183028313976    6.85368939986670
H         5.67175092444476    3.08877191676288    6.97331911815329
C         5.72344477598176    3.30776396633377    2.60633638307393
C         6.29523777388315    2.49074166041520    3.57425133292028
H         5.76540995325080    2.33348999563902    4.50615471618689
C         7.51543645187329    1.88173988051807    3.34088277033939
H         7.95656812385121    1.24551125854545    4.09322467871757
C         8.16621636293286    2.08432656885193    2.13498297771031
H         9.11711711918594    1.60954588145635    1.94909116525872
C         7.59423795186569    2.88914426564562    1.16096594764366
H         8.09856308060923    3.03620064689100    0.21816189545435
C         6.37587730392607    3.50032836706731    1.39145884710849
H         5.92129352270221    4.11473062333711    0.62632456625484
C         3.09374640595645    3.56664042438458    1.56284675914207
C         3.31972551712640    2.34528300761415    0.93542389443317
H         4.16206028063325    1.73570078346604    1.23132433352466
C         2.47568669062164    1.91784567009902   -0.07400226708030
H         2.66344127657664    0.97530676728218   -0.56503582786947
C         1.39191383336194    2.69358125784701   -0.45134197471836
H         0.73615562944758    2.35846324437113   -1.23969391427382
C         1.14383094442795    3.89654363951590    0.19090764760951
H         0.29181930201244    4.49579872047074   -0.09221292987146
C         1.98402963032911    4.32777510617561    1.20024386209921
H         1.77559170756976    5.25817618359087    1.71220501215053

