61
CSD_code = TATVAM | q = 1 | S = 0 | Stoichiometry = C26H31N2PRh(1+) | MND = 6
Rh        3.39350871806705    3.95550187101475    5.14547961362629
P         4.06740951273859    4.12440467951184    2.97135885789459
N         6.11684728115923    4.96463709709206    6.15585472534993
N         5.14113469545753    6.32561183287963    4.81110847233168
C         2.27350472270467    4.83851845892740    6.79443182901229
H         2.73375417465452    5.79491473239410    7.04853413466209
C         2.88076449748552    3.69251168369933    7.27203847095338
H         3.77481201973533    3.83546704614018    7.87524997712441
C         2.17114926843206    2.37951773756364    7.51630000834380
H         1.13659317301696    2.57571553216191    7.79523897378326
H         2.64080875838405    1.87840069287441    8.36431196704974
C         2.23733466309354    1.43525777659143    6.29934548403177
H         3.16128875359305    0.85189404173374    6.35141792144727
H         1.40910802063261    0.72116791750351    6.33847787719878
C         2.20550567724899    2.14896188639302    4.97084246640676
H         2.64663656856027    1.57535652262095    4.15079743202143
C         1.37592229028110    3.19436753403572    4.63929136005180
H         1.22015075220941    3.39556290366466    3.58037099557651
C         0.31433214289455    3.76833300465303    5.54635517939718
H        -0.06213380767564    2.98731127044130    6.20542271171073
H        -0.52515894020840    4.10589796688459    4.93671643838245
C         0.83555121477406    4.96625881809073    6.36123596500537
H         0.73946124760178    5.87456428464713    5.75915966920263
H         0.21437279221855    5.10890877766450    7.25106718406688
C         4.98934402297237    5.14295646213491    5.44297509523544
C         6.96017891748053    6.03031097370635    5.97904361020530
H         7.91161275196780    6.09359150935174    6.46455519289766
C         6.34835728964138    6.88406208981549    5.12598167305287
H         6.66889598259167    7.82745118218860    4.73538699723563
C         4.23405204844998    6.78013487911183    3.78807934630107
H         4.44122890289950    7.82951091559454    3.56676499401628
H         3.20701534802799    6.68554088769121    4.16269596306011
C         4.41058994173327    5.90932845149002    2.53895390219837
H         5.43541163109763    6.00110423220844    2.17076016804656
H         3.72812988299786    6.24001270533745    1.75532646599146
C         6.44972733497231    3.81506075177261    6.95451183021348
H         6.52419974117972    4.08826382511449    8.00881563832349
H         7.40777604170911    3.40558585574758    6.63168092648020
H         5.67707804695483    3.05591212734317    6.82856326920723
C         5.66812972825413    3.31767335705284    2.67707054141478
C         6.12052781059530    2.42908866276550    3.64656824938802
H         5.49734948880854    2.25055126456697    4.52047625285821
C         7.33106143907574    1.77961215472065    3.48884720518321
H         7.67953019643152    1.08812334994999    4.24135432730679
C         8.09287974110177    2.01453971631827    2.35546597262200
H         9.03866112476548    1.51095169392390    2.22823979835214
C         7.63875950975656    2.88716808046502    1.37802015819418
H         8.22926538924478    3.05648502236795    0.49057862740822
C         6.42797457103158    3.53741133055360    1.53232760757235
H         6.06496054929294    4.20174635454545    0.76021267811102
C         3.06335371038204    3.57526559784459    1.55563429571747
C         3.34029354300309    2.38497430255162    0.89128783215059
H         4.20466969137823    1.79949313477053    1.17153656350429
C         2.51602838308478    1.95769677183710   -0.13484572567388
H         2.74206735404001    1.03938176323147   -0.65486851717245
C         1.40437954367164    2.70231214873181   -0.49263658265639
H         0.76484008161347    2.36695111159669   -1.29415776074652
C         1.10791302627580    3.87498239808287    0.18465153614569
H         0.23501652804099    4.45006029123326   -0.08486581066771
C         1.92772704681124    4.30627524651162    1.21010993680159
H         1.68535546167105    5.21338532864948    1.74959002709176

