142
CSD_code = TATXES | q = 0 | S = 0 | Stoichiometry = C67H67N3O2P2Ru | MND = 5
Ru        3.85975123630718    4.55240226709222    4.35038253483861
P         6.11677212736170    4.46742439457974    4.26782339572780
P         3.48088392724385    5.46654461706144    2.27203013060703
O         3.62556991586174    2.45711537341061    4.07891668979381
N         3.42388965608765    0.56066896942874    5.35244931712255
C         3.44291010475299   -0.28161669991484    4.24501038335265
C         4.51343239943303   -1.18273408645016    4.13641946335182
C         4.57453751916631   -2.03231729519872    3.04573547204789
H         5.40627201904583   -2.71462630993483    2.94407869611683
C         3.58751216696614   -2.01331109111992    2.07749245599742
H         3.65074337675269   -2.67262050089212    1.22319812019633
C         2.51195190581411   -1.15654559425235    2.21429198523089
H         1.73677595002820   -1.15974306076989    1.46117203743236
C         2.41310979063399   -0.28978359672706    3.29170253491997
O         3.92471921202557    6.40465416555581    5.36382406794554
N         4.03503097884017    7.20831382964872    7.50132173485894
C         4.26452435155010    8.51753953908794    7.08266170303707
C         5.50354040422487    9.08693795619348    7.42132740741370
C         5.76609091834491   10.39626841331711    7.05850471070617
H         6.71361509844164   10.84769580254636    7.31117747201657
C         4.82420363442204   11.14044376711801    6.37229385585438
H         5.04129399301812   12.16089537745348    6.08873941392077
C         3.59732110557320   10.58342481395478    6.06274547564982
H         2.87025369121533   11.18740009998111    5.54253419704517
C         3.29316175665023    9.27552222861588    6.40728750564103
C         5.59180886546669   -1.19559884707903    5.19594186607238
H         5.27601811749617   -0.50652331775370    5.98657186046588
C         6.92319445645409   -0.70265758047306    4.62581337856834
H         7.67906731289028   -0.65285269578904    5.40803310875931
H         6.80791777732054    0.28828796659034    4.19295931473373
H         7.27889520667792   -1.37217589852382    3.84567567376488
C         5.74789188153964   -2.58752985054401    5.81014614242043
H         4.79353191199202   -2.93650302829837    6.19767302621525
H         6.46612795966883   -2.55946583614999    6.62778584607210
H         6.10110880727501   -3.30323434777519    5.07173760512745
C         1.19875857834396    0.60086505974114    3.43556249354970
H         1.25842287288084    1.11065116428054    4.40346320666241
C        -0.09043922400200   -0.22390800737079    3.43193093395633
H        -0.94713855948879    0.41704424281577    3.63496361225404
H        -0.04595504481776   -0.99608408112897    4.19703460100762
H        -0.24571657658494   -0.70335302811923    2.46870414571892
C         1.16695970061995    1.66458502678252    2.33523767820502
H         1.12349391922111    1.20294411276888    1.35115496594484
H         2.06729042997871    2.27640329729055    2.38417079102291
H         0.29677613967262    2.31019065012489    2.45449285214151
C         6.49533917437028    8.26151598089207    8.21082356978328
H         6.32603742728215    7.20750986173595    7.96276779837619
C         7.95474038620574    8.60046371826219    7.91176352892893
H         8.14645473384197    8.59119480194209    6.84035206211975
H         8.60771162485071    7.86908479306563    8.38488634899672
H         8.21840255347883    9.57980516645847    8.30422377582521
C         6.20005263496391    8.43721424932144    9.70340178138841
H         6.87422203197491    7.82695940591082   10.30178872029692
H         5.17657619199584    8.13674537700393    9.91124159473083
H         6.32189856554667    9.47929796738767    9.99276432363287
C         1.93212852478088    8.67252630386380    6.13116081530347
H         2.07802243953284    7.66493744392084    5.72661983462107
C         1.09999987257049    9.44521556746189    5.11037989708995
H         0.80799879297800   10.41923378192356    5.49730242834520
H         0.19185032736110    8.88671263246481    4.88901157284310
H         1.64980592027826    9.57826560356624    4.18043980330873
C         1.16085896124551    8.55012176769446    7.44982110955741
H         1.73173721144559    7.96330708756022    8.16584520996001
H         0.19929210540726    8.06569369678472    7.28592075440235
H         0.98559103342548    9.53763848294628    7.87326340516456
N         3.72254532959585    3.96071165823353    6.18290532359334
C         3.52126546620954    2.66574096630474    6.43951006893434
C         3.35689725442147    2.21825439471613    7.74292285697787
H         3.19858623266568    1.16613524396310    7.91355579698155
C         3.40763423163289    3.14546751250792    8.77424021218025
H         3.29698995462641    2.82248345471742    9.79845682478307
C         3.58834140814348    4.49134443002576    8.48549296309339
H         3.61789021174298    5.25017249610471    9.24979997803556
C         3.73490755131629    4.87285275503561    7.15986412259113
C         3.51131940557898    1.83541285469179    5.20211311487304
C         3.90407857701801    6.25742881393571    6.64556536508981
C         6.87960303824935    4.08185192211763    5.87602839790882
C         7.60113282356842    4.96865655682575    6.66479120099855
H         7.84013860580125    5.95466981646974    6.29617613282968
C         8.02784147592066    4.57672762221890    7.92307663660666
H         8.58556264299489    5.26915878638771    8.53621360981060
C         7.74156185884751    3.30908134072879    8.39941054599667
H         8.06860055909891    3.01624096496268    9.38610393812373
C         7.04334758217786    2.41192108743322    7.60530994770535
H         6.82931990374069    1.41646621067352    7.96530561507400
C         6.61589542727375    2.79551608370714    6.35030343039895
H         6.07705707388501    2.09957905425060    5.71922811172050
C         6.87598382707152    3.18626952941656    3.22165850043263
C         8.25400888113939    2.98537505848331    3.27984291748608
H         8.85469020110455    3.59497154306002    3.94214548504888
C         8.84119214309529    2.01277512644549    2.49351787002287
H         9.90925244432423    1.85749790143163    2.53832163149331
C         8.06032340465154    1.23174247234602    1.65363384705197
H         8.52370388428112    0.46744050590059    1.04739601101221
C         6.69000114736225    1.42298620241052    1.60134655971177
H         6.07608189947796    0.80484094278029    0.96366437233055
C         6.09620056501722    2.40120348686502    2.38154783553419
H         5.02439240828335    2.54180607921582    2.36451358614047
C         6.85526248111130    6.02001538224269    3.67482368243718
C         7.47434986919489    6.09442492516542    2.43000122121832
H         7.59510619522714    5.20040777388770    1.83388590686379
C         7.94294341226945    7.30706174474818    1.95777888221818
H         8.42235113878327    7.35576382989069    0.99083755164239
C         7.79513047317064    8.45586024776376    2.71657772749850
H         8.16196718420930    9.40043883559207    2.34333257275053
C         7.16196038788148    8.39308142536858    3.94682352463929
H         7.02052964402769    9.28755308540114    4.53583433501095
C         6.68565975720430    7.18524612375679    4.42071454284389
H         6.15225489867303    7.15562303997826    5.35783444749179
C         3.33876934278003    4.55072303827214    0.70510207620089
C         4.52933488407364    4.14173959446962    0.10763032493765
H         5.46879033009660    4.42279941208635    0.56749144713064
C         4.50493804756975    3.38683583273348   -1.04862057004298
H         5.43073999263794    3.07145338909819   -1.50734746873369
C         3.29021830571119    3.02831947632892   -1.61301298646962
H         3.26849978264413    2.43242389086259   -2.51340776021954
C         2.10499205783051    3.42884557594920   -1.01977897737471
H         1.15912883570849    3.14634899928846   -1.45846418821010
C         2.12413617827308    4.18652197658990    0.13848833317406
H         1.19686408989279    4.49055269007850    0.60325882917542
C         1.75918728917624    5.86355801922720    2.73362825696204
C         1.28570441156895    5.17664203734915    3.85446510159169
H         1.89905298381866    4.36172205383250    4.29403587225794
C         0.03375532413104    5.45180738459586    4.37171383815837
H        -0.32904303673083    4.92405238901213    5.24259938037444
C        -0.75841092414373    6.41341024865092    3.76102308086162
H        -1.73848388600627    6.63042970935115    4.15979684851087
C        -0.29703620145564    7.09652742745957    2.64708957641094
H        -0.91949550036208    7.84606340551243    2.18066391591042
C         0.96288028540678    6.83370696365271    2.13662072374125
H         1.33551163122382    7.37883120049727    1.28052211790534
C         4.06823164669209    7.11039684615503    1.74150479346876
C         4.45396286200033    7.42529174722937    0.44434905497675
H         4.43728512362844    6.67041098494848   -0.32880951779861
C         4.85397199113708    8.71537141043747    0.14106204649119
H         5.15248081299090    8.95773562450091   -0.86880426187203
C         4.86607947814241    9.69404870041674    1.12056636654910
H         5.17373205460748   10.69959476618045    0.87352712526377
C         4.48572224296806    9.38154258769507    2.41597869469516
H         4.49757626403279   10.13698170749112    3.18795811494072
C         4.09517735938721    8.09409382745393    2.72806075294194
H         3.81978079261220    7.83967572308760    3.74144965473048

