42
CSD_code = TAVCOK | q = 0 | S = 0 | Stoichiometry = C17H24Ti | MND = 12
Ti        7.16313294535285    4.85028341724515    1.61209594239096
C         5.81701194804195    5.96923323399767    3.18488628807626
C         5.80032794645590    6.76372314723096    2.01736236366263
C         7.09137110504989    7.28139412134271    1.83150946634890
C         7.92935542223057    6.75365229002376    2.82586829784862
C         7.13557122243454    5.96271096909527    3.68540203144654
C         6.83178713244962    4.43819723200629   -0.69833708518339
C         7.28509610181751    5.76685962531397   -0.62937348635728
C         8.59406732598431    5.75852587916113   -0.12156350287815
C         8.96033286035707    4.42475707404612    0.12818088674165
C         7.87658323832967    3.60267249483639   -0.24856886166305
C         7.98934557594206    3.33524153879325    2.75692150087517
C         6.65302337163525    2.56643040959210    2.86281338633452
C         5.75233548555672    3.36046544494863    1.89010485221789
C         6.10115599414789    2.63408293213441    4.29129245808805
C         6.81148113257419    1.08793646533564    2.40996573375123
C         7.80170655363887    0.30216682119375    3.27212312830823
C         5.48319976422351    0.32964679163015    2.36900792405005
H         4.94069315083570    5.58986902303886    3.69393715098325
H         4.91382955757943    7.04254480833559    1.45870050914556
H         7.37353923789052    8.02245205804826    1.09767138564753
H         8.96510595684391    7.02412797072813    2.99775060016478
H         7.45029639641323    5.57649509035172    4.64616275980071
H         5.90776292866529    4.10986071902037   -1.16077841768824
H         6.75222007740494    6.62875325230333   -1.00836079630481
H         9.25216294695706    6.61320012982224   -0.03831927208973
H         9.95032702989295    4.08401482062062    0.41004554084467
H         7.89200432234407    2.52237505746813   -0.30645420544788
H         8.39809051182483    3.57529783017378    3.74525751138350
H         8.73634717820742    2.73916996543664    2.22073107424445
H         4.78918649061349    3.61639510789654    2.34656603543968
H         5.55051855433865    2.77496166580812    0.98624039914155
H         5.99732219433938    3.66901097169681    4.60831133045663
H         6.76977326470945    2.13329626329277    4.98804859837586
H         5.12250030547872    2.16279904564503    4.35092964551540
H         7.20987699526765    1.11642776605579    1.38744706232953
H         8.73460711893087    0.84482811311813    3.39930776178870
H         7.38406725661847    0.09807266333796    4.25467495435273
H         8.02544456548242   -0.65278699934635    2.80053283932038
H         4.72545335540465    0.88575161363487    1.82338205391768
H         5.11444332952132    0.13778849998807    3.37345064973373
H         5.62144214821292   -0.63068532440246    1.87577350488597

