52
CSD_code = TAVFOO | q = 1 | S = 0 | Stoichiometry = C21H20N5O3PReS(1+) | MND = 6
Re        3.95882505625967   12.55266284727829    7.90742754575240
P         5.20177200601755   10.76031616709849    9.04692193454852
S         1.22039151761589   11.94842634115050   11.58275670038132
O         3.51347671520974   10.64706970965577    5.50480055115064
N         2.33388946612825   11.94270684654188    9.24705959217236
N         4.28613153099280   13.71330161261496    9.72234686696521
O         2.15428565653912   14.77989243662440    6.73462681187598
O         6.50788005445592   13.60014026914952    6.50052046098469
N         6.58965680795298    9.78038763528112   11.20551631974745
C         3.44878378717131   13.44316601791985   10.74470942351787
N         5.23459488390545    8.18056372386701    9.99192532840738
N         7.30212137016665    8.99038901143030    9.03189637053304
C         2.41955158838859   12.47339748068645   10.44420079213065
C         2.83089598495655   13.96587130143609    7.14741010241829
C         0.87817005815187   10.37940424764495    8.00499602941167
H         1.42469311742019   10.50522814802446    7.08391011712965
C         5.91515592551181   10.97409877727906   10.76039718537670
H         6.62846340336318   11.80842627977269   10.75060526473830
H         5.11321552241176   11.21288948635025   11.47194629549544
C         1.27599334991996   11.08366944277946    9.14317522022309
C         6.73623753490493   10.06275469388570    8.25177714608794
H         6.47783556911161    9.69440699734148    7.25149137870991
H         7.47733974306533   10.86339510625728    8.13983283126266
C        -0.56565905042966   10.10842768467098   10.41598212645280
H        -1.11803520869745   10.01330648451869   11.33677777006516
C         5.54887706332828   13.21607405578967    6.98396939078030
C         3.56148276985327   14.06431346945306   11.98715020339072
H         2.86593354423049   13.81447921720311   12.77308470212291
C        -0.22102077049543    9.55531186098407    8.08734005676663
H        -0.54151346922074    9.00998700320609    7.21406271512135
C         7.71702840277635    9.43176716489082   10.35106842939060
H         8.37695329693906   10.29750900705375   10.25399456996627
H         8.26599087871433    8.61797245085358   10.83109904228244
C         0.53816728306281   10.94264903833758   10.33738874072880
C        -0.93397610033691    9.41623269183979    9.28028218532800
H        -1.79147437629637    8.76328603934611    9.31377670332846
C         3.63558193883540   11.36638019159722    6.38335332016316
C         4.35170687365765    9.12824180622155    9.35841501259843
H         3.47480688872700    9.28125626118474   10.00056946343294
H         4.00678455480687    8.72201725448026    8.39946783227398
C         4.56398094115953   14.99569645962404   12.18009959651994
H         4.67364655916662   15.49452503990054   13.12966672509590
C         6.39070072388625    7.86687510884027    9.16419745654962
H         6.92957667158919    7.03944658716744    9.63226169799158
H         6.05110739846520    7.55672458606762    8.17322350188003
C         5.24377805583175   14.61629857505065    9.91932142466522
H         5.89304045692372   14.82188495530829    9.07850341295885
C         5.69073509716528    8.63982506029679   11.29290180502020
H         4.82576399472785    8.90753061156900   11.90681018238114
H         6.22754289725043    7.82031600624181   11.77684306911749
C         5.41925317488224   15.27751903263385   11.12280085379765
H         6.20997885987934   16.00238171559705   11.22443774080429

