52
CSD_code = TAVFEE | q = 1 | S = 0 | Stoichiometry = C21H20MnN5O3PS(1+) | MND = 6
Mn        9.09500721741849   12.48188144782299    7.98640778658901
P         7.88498578216720   10.80197304016647    9.01826387407869
S        11.81051747523931   11.85942174632413   11.49695545432944
N         8.75647796160330   13.63023435875008    9.63887382385257
N        10.65654453917954   11.86691033534866    9.17630941582244
N         7.77340921572477    8.19539965772248    9.89065628339480
N         5.74751623662529    9.07238814032057    8.90688935108444
N         6.42456515208715    9.78782012834452   11.11463973658329
O         9.29658157621962   10.63996821096567    5.71647071592838
O        10.78245586856142   14.53992040718087    6.73869997644876
O         6.73105684805249   13.39938966854051    6.51618655625582
C        11.71463847661958   11.00625923663960    9.05205728727929
C         9.58429742625712   13.37463234556532   10.67463000407864
C        10.59819115183547   12.39265045713736   10.37914063250299
C        12.10629047662889   10.30912480514045    7.90659992850200
H        11.55783757515301   10.43925441368471    6.98724870617741
C         9.47977306121816   14.02193737662021   11.90516223194646
H        10.17069668842761   13.77585919033621   12.69641983876437
C         7.81323746140058   14.55603325278977    9.81801468188830
H         7.16429663644897   14.76278666233092    8.97688986428977
C         8.68985293453411    9.13997229400922    9.30543723118715
H         9.04883177883154    8.75374629496933    8.34256582353169
H         9.55329855483452    9.25900332603363    9.97330636882908
C        12.46891559638713   10.85766787073399   10.23573355707540
C        10.12900084913139   13.74566556386274    7.22913949671851
C         5.30946887270796    9.48552303905806   10.22752670185874
H         4.66901112787220   10.36665032010153   10.13952427659094
H         4.73399837391159    8.67002280323138   10.67216709619254
C         7.13156822547522   10.97854814171808   10.72232831433487
H         7.92281339159037   11.18159752963440   11.45696841375069
H         6.43550322940443   11.82796750168076   10.71541526138781
C         6.63170401195589    7.92640773166225    9.02834646286640
H         6.98828455619447    7.63630666857235    8.03726722341528
H         6.06542496732386    7.09796473889265    9.46073023953335
C         9.31010794338509   11.35366737010121    6.61247095413224
C         6.35392905557585   10.15380734254581    8.17242811993127
H         5.63107703446726   10.97335931515353    8.06847862523651
H         6.62836649408995    9.80752043804338    7.16721293187889
C         7.65133671682738   13.06903711010669    7.10969201175446
C         7.29691704577498    8.62648580235558   11.19371052389262
H         6.73178177906645    7.80561083940927   11.64163116250579
H         8.15229039934354    8.85927328022493   11.83437963167207
C         8.49271312125431   14.97290472291250   12.07602240417377
H         8.38682948520740   15.49429368099822   13.01379649863566
C        13.57348748680820   10.02284349176892   10.29913923597055
H        14.13447921919240    9.92463616001955   11.21435464052653
C        13.20696140456868    9.48503021923918    7.97240485297604
H        13.51987986900288    8.94754015360462    7.09147378145075
C         7.64756729085827   15.24470573090523   11.00756241762509
H         6.86933604740041   15.98564590567658   11.09001528094798
C        13.93141361055345    9.33648143350233    9.15693871270440
H        14.78907269959864    8.68326829755377    9.17771559691495

