43
CSD_code = TAVJIJ | q = -1 | S = 0 | Stoichiometry = C21H15AuPS5(1-) | MND = 3
Au        0.51427811810691   28.06967434684633    6.53219841211628
P         0.79330453091365   30.32578133860440    6.52989910599933
S         1.82924789816802   27.09583946875026    8.54759239233230
S        -0.23687957409727   25.90447071696396    5.93300719236739
S         1.86735266222718   24.27584324717539    9.37302215792553
S         0.18910337651943   23.30749176771527    7.23676182986363
S         1.23451152848665   21.37021407813439    9.24541096717990
C         1.30138049496290   25.49529031672028    8.23387110916418
C         0.51068834312643   25.03602741838577    7.22932878400118
C         1.10388522278310   22.89738892141540    8.65139609798451
C         0.06173529657511   31.13237571241814    7.98288540338597
C        -0.57199113666974   32.36996506004586    7.96642787437495
H        -0.69142099435130   32.91004436808007    7.03665452713440
C        -1.05967057879241   32.90298121625552    9.14607138926591
H        -1.55760659067630   33.86292116621886    9.13364345567552
C        -0.91137002455517   32.21443983763422   10.33917481843097
H        -1.29669850782489   32.63788689655126   11.25599107508657
C        -0.27208744690449   30.98464349433919   10.35706059287229
H        -0.15590328052208   30.44554418300012   11.28556084327945
C         0.21358922143612   30.44168449044815    9.18305026994980
H         0.70719356246895   29.47738864042525    9.18051421908281
C         0.14258135739695   31.25131506332623    5.11956580553251
C         0.95322279481885   31.71597684308534    4.08669775660015
H         2.02835366368952   31.63045390182283    4.16854618664663
C         0.38131592846693   32.28643907433489    2.96453967154208
H         1.01409938395878   32.65475144306130    2.16913218580229
C        -0.99635717053533   32.38220388088161    2.85268117775722
H        -1.43780259416504   32.83012340996461    1.97400644537443
C        -1.80951007230399   31.88576964461691    3.86134523694423
H        -2.88460514953329   31.94068737186572    3.76550160744582
C        -1.24567242622064   31.31150742345223    4.98215372987163
H        -1.86895642340054   30.89937910359758    5.76609139513431
C         2.50822376927507   30.89828933539190    6.70256482494568
C         3.50540406327173   29.95355259180707    6.90807776751731
H         3.24325775989873   28.90472997722283    6.94645880179887
C         4.81510373391555   30.36407671806726    7.08697913861989
H         5.58910473579173   29.62899385277113    7.25031189791085
C         5.12837804150402   31.71238370529473    7.06213022944071
H         6.15135806283226   32.03300551787449    7.20077769445390
C         4.13090345522380   32.65705773893929    6.86914196135218
H         4.37732138287136   33.70993321080599    6.86041710080285
C         2.82082452380392   32.25589334508760    6.69554392921117
H         2.03580905805048   32.98718016058785    6.55401293781531

