58
CSD_code = TAVKAD | q = 1 | S = 0 | Stoichiometry = C25H29ClNOTi(1+) | MND = 12
Ti        1.47970599665157    7.80891364137055    6.54192761976803
Cl        1.53047082522122    9.28102948389603    8.20073302255630
C         1.14274086813792    9.22261079995675    4.74129527482428
H         1.85860221429559    9.90072933577417    4.29255233572063
C         0.83770199387447    7.91468146088879    4.28884681897851
H         1.29113939275164    7.42074452536527    3.44105227636961
C        -0.27361943552797    7.44942504369062    5.01459971251206
H        -0.81714797202407    6.53095013282592    4.82686555684052
C        -0.69315638065795    8.48981386928340    5.88465360956101
H        -1.58295425105611    8.48195150057770    6.50210560563706
C         0.16712842054916    9.58603636624128    5.69592437299996
H         0.05043797733171   10.56568991960640    6.13955310344234
C         3.33450858247972    6.90762891721935    7.63000854075058
H         3.46229897729951    6.89872006919269    8.70354869498145
C         3.76854524211467    7.95934744206441    6.78482687158271
H         4.30189209624452    8.84576039916263    7.10811363746775
C         3.53293663937962    7.56727609941690    5.45259146889179
H         3.88584099339342    8.08279743402654    4.56845574662795
C         2.95161663578277    6.27734997422617    5.47648515184440
H         2.77178779162298    5.66694518064954    4.60275722454249
C         2.86318309538324    5.84189180419138    6.82028603299238
C         2.41491607813208    4.46599354078261    7.26007662371575
C         0.86303296108047    4.36495162322995    7.08216495211479
H         0.62475046340358    4.51609100451444    6.02402663248121
H         0.51930194151132    3.37709610648868    7.38801284090132
C         0.23134488835801    5.45003704583502    7.89533343931245
O         0.41347373312782    6.65111125068982    7.57147065477947
N        -0.47684300057699    5.13633828989174    8.96650799239621
H        -0.56966184818227    4.16563802601512    9.23333859819035
C        -0.91205224308205    6.11921320205593    9.95495292327653
H        -1.90702526566798    5.83960102208339   10.30406042582491
H        -0.94953311744729    7.09471122591283    9.46170257991604
C         0.08327353159010    6.13465625052383   11.08985453465782
C         1.23798689574975    6.89964852690542   10.97458971326356
H         1.37588725370621    7.53001836738489   10.10474234045848
C         2.18860420988304    6.87761763780358   11.98025588985077
H         3.07780960869402    7.48299637621683   11.89203181115439
C         1.99321250711624    6.08909268398813   13.10256004831826
H         2.73262227032900    6.07564532396372   13.88798895898799
C         0.84418074074491    5.32541021415987   13.22014331461905
H         0.68604228190850    4.71673162019339   14.09675797943799
C        -0.10682405537403    5.34249524190754   12.21391441011264
H        -1.00499183357068    4.75001972191301   12.31150375540011
C         2.77739507791026    4.17795234146875    8.72794680367293
H         2.36532168899591    4.94878458690643    9.38523819831407
H         2.32576375167559    3.22402506995263    9.01205201008192
C         4.28881747027611    4.07053888755768    8.93990771654470
H         4.76789011965259    5.02652994347302    8.72748995788430
H         4.48056485198999    3.82384439570309    9.98495230669258
C         4.89416811962802    3.00764281570968    8.03041462771962
H         4.49281922355330    2.02563590508278    8.28851749998053
H         5.97411622340328    2.97426652594313    8.17211462361472
C         4.56828526378182    3.32589170394567    6.57609450293423
H         4.99085483108705    2.56272456633657    5.92219660355222
H         5.00705391255340    4.28748266194575    6.30238118409074
C         3.05606005571956    3.37545898865168    6.37971998971083
H         2.63388823151200    2.40872732089893    6.66167641197266
H         2.81933347357772    3.54368658431058    5.32892446515712

