47
CSD_code = TAVKOR | q = 1 | S = 0 | Stoichiometry = C18H23ClNO3Ti(1+) | MND = 12
Ti        2.13154055159202    2.27811100183972    8.64622637793917
Cl        0.28895861469051    3.08162566932912    9.63339862530641
C         0.75764640517756    2.17203715392728    6.75357888667406
H        -0.00968353098369    2.88979042797973    6.49295467647741
C         2.09108768362865    2.16119669458425    6.28619769365256
H         2.53587386178067    2.87911196252586    5.60823892909651
C         2.71159047423268    0.99492485049547    6.77383917562599
H         3.69373934160372    0.64402030062666    6.48742954739561
C         1.75628295472674    0.27018198774845    7.52908836873394
H         1.87492516029395   -0.73739246861721    7.90660911070917
C         0.55023254370430    0.99931531464578    7.51856658588980
H        -0.40096941946908    0.66540831116602    7.91619023951808
C         4.36419467220135    2.13440878809742    9.34967144029429
H         5.24650186936153    2.37905498279732    8.77133847010206
C         3.81065416613740    0.84471976802764    9.46610917679613
H         4.20748827074038   -0.05230842173763    9.01232018641385
C         2.75110949473425    0.90300634648060   10.39870022832274
H         2.20208759531966    0.05722999821401   10.79675378703239
C         2.71832471447592    2.21689016449892   10.92785584441515
H         2.10071948688089    2.53048256526965   11.75776444262732
C         3.70559754749588    2.98973357230866   10.27936603161100
C         4.09353170669548    4.41702905973373   10.59488832346129
C         4.23884784817717    5.23033230680885    9.27241534794044
H         4.50133830148485    6.26186870301329    9.50409778255147
H         5.03433442243611    4.79486273493417    8.66273227652887
C         2.94973242579743    5.14302679085752    8.51888553138699
O         2.51781008306831    4.03465967027387    8.12326602908546
N         2.21857568085431    6.23527210524076    8.33945188594449
H         2.60042699945118    7.14316580554872    8.56269320221116
C         0.97347450990426    6.17243173406607    7.60753924249071
H         0.48001084443311    7.14281022297396    7.61354576611299
H         0.31210417755609    5.42939252358096    8.07302341661912
C         1.23782644714136    5.72330588611179    6.16098323909138
O         2.32519865688017    5.39678815922126    5.76565373041511
O         0.12561736200737    5.73405556496251    5.45675342101937
C         0.21643237585945    5.33146862204251    4.08750328873874
H        -0.75033300350122    5.55447576037592    3.64489617171459
H         0.42847579074981    4.26291905255174    4.02268439200133
H         1.00897733821572    5.88529114379810    3.58235111466987
C         5.44403929534985    4.41326218728958   11.32291348758230
H         5.73819273108507    5.42650205227352   11.58337406960438
H         6.22200148548241    3.97258351715485   10.70532421735992
H         5.36777279440894    3.83202375392853   12.23795064350302
C         3.03317153236678    5.09163915105980   11.47211474284843
H         3.26552222674019    6.14608881342950   11.60133426156609
H         3.01805858996855    4.63690155655526   12.45884078477392
H         2.03945691905938    4.99999415202232   11.03158580615605

