102
CSD_code = TAVPEO | q = 0 | S = 0 | Stoichiometry = C37H59ClN2P2Ti | MND = 5
C         1.01901754010648    9.71615911070485    4.64577602433801
C         1.48443360301310    9.16691945365353    5.85252556988128
C         1.09720785763867    9.75445112324297    7.04731621100743
H         1.42406745179108    9.33352159132458    7.98428736637456
C         0.29810724652495   10.88186210668717    7.05873964625136
H         0.00717783344934   11.32846286250262    7.99790056701906
C        -0.11031494795949   11.44679866288455    5.86755199124629
H        -0.70811539433832   12.34465199240996    5.88422911972672
C         0.23026728551096   10.87616815752884    4.64863761897297
C         2.37557646358339    7.94423664289662    5.82992729065340
H         2.93594915080419    7.96083517390560    4.87549243777724
C         1.52392911691950    6.67143907854533    5.88295714633930
H         2.16142224296655    5.79066022207083    5.91237838452864
H         0.87786930371699    6.60055356620620    5.00960586000597
H         0.89912859474321    6.67480829607981    6.77441383547142
C         3.39579196789578    7.95932063876191    6.96737796538590
H         4.12972741075667    7.17074399952678    6.82165901134209
H         2.91960725824744    7.79409328393463    7.93078020882131
H         3.91053903072302    8.91723137336457    6.98436206440212
C        -0.18453200173346   11.55288030064233    3.36296601959002
H         0.01532489777732   10.87921902522566    2.52176855497140
C         0.68525882273962   12.80027640962334    3.17695407765462
H         0.50503006378502   13.24574334847598    2.20064943504179
H         1.73959478182148   12.51953643277562    3.25067942336494
H         0.47099478765420   13.53731060864331    3.94778230230196
C        -1.67066081870685   11.91626953013833    3.33585997705842
H        -1.94611050514479   12.26038529059467    2.34120317775058
H        -1.89366506551587   12.71414384836262    4.03952663787037
H        -2.28804575914894   11.05620801924747    3.58856787615801
C         4.56125421577889    7.11818506189528    1.46623452183516
C         5.29135352133092    7.66440168715079    0.39237006207078
C         6.51324991216237    7.09227554762678    0.06402595923780
H         7.08049333705899    7.48481255548719   -0.76441376678768
C         7.01767605839742    6.01689738840736    0.77061847896362
H         7.97226973010511    5.59205500269903    0.49889498886095
C         6.29104779127645    5.48113360541534    1.81452097831790
H         6.68358243450437    4.63184697962900    2.35205765588188
C         5.05590066025894    6.00432947557447    2.17001208555118
C         4.74792981828539    8.81922428375975   -0.42386557568763
H         4.10629567932552    9.43431808582836    0.23084712229172
C         5.85141587094249    9.72674720412115   -0.96810955032195
H         5.40867067865112   10.64342202256160   -1.35317778948965
H         6.39104807020941    9.25217723856233   -1.78507182278132
H         6.55432393311230    9.98391210748342   -0.17913442905071
C         3.89032383602996    8.31569775851738   -1.59154130049142
H         3.63850886127006    9.14950211663992   -2.24348208186837
H         2.96076910427595    7.87780395005172   -1.24013694833663
H         4.43386214132468    7.57176132961153   -2.17268357483052
C         4.27050141307789    5.34927708091879    3.28626363372533
H         3.32291083722945    5.88616585109160    3.41798362465323
C         3.95904703915285    3.88844884329087    2.94237335672734
H         3.51276760548830    3.80047641118511    1.95516230740238
H         3.26778049565886    3.47282080210396    3.67270604199819
H         4.86644412641231    3.28964233764519    2.95534715344021
C         5.03561472895505    5.40895835562306    4.61018688249765
H         4.46722060953963    4.90471034490056    5.38931806725663
H         5.20198790834494    6.43982968272079    4.90775021866178
H         6.00071444776997    4.91589454983353    4.52352670731867
C        -0.92215230825186    8.18529458654934    3.25939691655806
H        -1.02996670995204    8.48809876516524    4.29932728281256
H        -1.30851936865056    7.17633934840186    3.13339661460538
H        -1.52127675942935    8.85557112333428    2.64318513947815
C         0.52160532492706    8.26356135417986    2.82420010983215
C         0.90933262936803    7.41779742431429    1.78190394479653
H         0.11517201754843    6.85282841295711    1.31231865473433
C         2.20470199397280    7.09188239429893    1.36497111351509
C         2.26775226827995    5.93065494710959    0.39588931245625
H         3.27325534919782    5.76619937693744    0.01657125844633
H         1.59212397773406    6.10594618123311   -0.43982029137387
H         1.93156652664383    5.02518056106495    0.90086657866616
C         5.67852920860430   12.53768428575832    2.11928471450915
C         4.49450650325298   12.86127872195922    1.20471040121794
H         4.47235327017703   12.19156444547137    0.34230082040888
H         4.55760749714272   13.88677363528105    0.84025585119316
H         3.55697613839221   12.74950564469795    1.75456149255799
C         6.97265373849235   12.74201322091062    1.33592151227205
H         7.03515118253307   12.06184861739323    0.48948300790545
H         7.84728281140832   12.60545347263057    1.96659589711803
H         6.99993779486730   13.76177294736353    0.94979152950053
C         5.63936698411878   13.48221281563329    3.31672624518350
H         6.56594598578151   13.45879243833754    3.88175272912454
H         4.81899604553836   13.20850283250868    3.98176209985923
H         5.47755478680305   14.50362424293276    2.97224334715482
C         6.92160550988911    9.99770265170738    3.46198936295382
C         7.99275556863020    9.62315866188056    2.43890498425071
H         7.60190507841576    8.88923591997914    1.73508157289988
H         8.84759939155330    9.17843901799044    2.94956041240981
H         8.34644886894432   10.48675748309902    1.88436520247968
C         7.47057726545367   10.94508339150850    4.52045732016514
H         6.65243264766002   11.31635073393437    5.13653974528969
H         7.99354953994035   11.78595669302573    4.07314098603190
H         8.17541636643139   10.41478324786842    5.16188410345745
C         6.44886540893478    8.71494127921565    4.14302678626456
H         5.92899796247421    8.08135243896257    3.42046071519647
H         5.76457791748016    8.95666125457624    4.95696788534986
H         7.29739004169721    8.16160675914066    4.54597576458830
N         1.37352211451005    9.05436463810294    3.44360809180232
N         3.30454286074284    7.66450348255602    1.82724380198123
P         3.91763758492904   10.78790982493055    4.12493616789409
P         5.35381016091380   10.68255425128948    2.57541500544115
Cl        1.94274469917765   10.66246626169063    0.81962573260872
Ti        2.94412103817085    9.52397240182600    2.43606126807942

