102
CSD_code = TAVPOY | q = 0 | S = 0 | Stoichiometry = C37H59ClN2P2Ti | MND = 5
Ti        7.63801268065209    2.04166161377098    5.27838170645112
N         8.32673720947875    0.95360138151346    3.82744260083525
N         8.45548106401925    1.02652346975443    6.71224386169251
P         5.38465644245148    1.60880625431170    5.61615911272876
P         5.42350142980531    3.52792539471501    4.70612531541689
Cl        8.84693562365867    3.92430845334759    5.19378476072820
C         4.79967374790703    4.67897888189138    6.11914114840373
C         5.98713240378296    4.68656142437607    7.08381353854548
H         6.88091895576081    5.07283146886027    6.58893203051877
H         6.17820103211122    3.66477659866207    7.43864284239627
H         5.77226493527878    5.32204103332607    7.94339988425609
C         3.57497121243381    4.17199097151426    6.87375787994625
H         3.50141008641452    4.67899447975406    7.83637561514251
H         3.66745554297105    3.10036338908475    7.05515026601532
H         2.65544883755753    4.35742995921167    6.32812552834662
C         4.58169515352046    6.10054865217103    5.60588063841720
H         5.39051721644783    6.39580669826603    4.93820687397052
H         4.55835608230244    6.79704017321761    6.44464806085341
H         3.63784060214623    6.19031068985573    5.07505835705578
C         4.04610428056918    3.42192078969555    3.36645782056060
C         3.98206593389850    4.72255655564585    2.56700014896189
H         3.41705425896450    4.56046094348205    1.64870805348027
H         4.98202795893488    5.05863000836867    2.29690745240554
H         3.49231725200761    5.51531819961074    3.12355368663725
C         2.67620268893608    3.04137042539034    3.91170417532913
H         2.17990181532920    3.89111601805787    4.37176022296937
H         2.77973442047690    2.24373000690439    4.64641099554699
H         2.04208804660371    2.68378395472976    3.09995232791856
C         4.53368372591512    2.31269675814401    2.43617314782290
H         4.61125794949358    1.37427296925424    2.98615224643154
H         5.51375169052522    2.55835659219683    2.02834718403989
H         3.84208577720001    2.17325046789534    1.60523297762061
C         7.71570084624618    0.90663843709029    2.54818603263026
C         8.01144803938018    1.86195397020998    1.56009390209666
C         7.43356439618951    1.72212426578979    0.30423309663822
H         7.64436198556299    2.45328566361514   -0.46066275166124
C         6.60578179981136    0.65624467285264    0.01398915842065
H         6.18425801397550    0.55247259252136   -0.97459993749952
C         6.31199778703766   -0.27413180272726    0.99319018468473
H         5.65984080086456   -1.09799636309846    0.75423058515901
C         6.84514304466113   -0.16380671524145    2.26882446109925
C         8.90414161164968    3.05211095457775    1.83416030604783
H         9.40393087811712    2.91742904196580    2.80123722425940
C         8.04744181044041    4.31842537018565    1.92743820715986
H         7.51487996210800    4.49484884953764    0.99439446546820
H         8.67652043940545    5.17995810507379    2.14103704725034
H         7.31861273624319    4.21729999317657    2.73698603976297
C         9.98458546218081    3.22302686089585    0.76211196942513
H        10.50433868795132    2.28576826971159    0.57311749260871
H        10.71192434483155    3.96328111347469    1.08859556745632
H         9.55498937323866    3.56772934760091   -0.17523771350918
C         6.52052246031584   -1.17129822353859    3.34949355258500
H         6.51170824506661   -0.62580217750077    4.30770528793622
C         7.59847600231498   -2.25941950677283    3.41389313461795
H         7.69559526194378   -2.75271753240512    2.44789601631505
H         7.32762899981241   -3.00708972453564    4.15624721076634
H         8.56413289785220   -1.84075746469570    3.68876693673311
C         5.14613922587389   -1.81354972486187    3.16761828792457
H         4.38631125901717   -1.05226980656271    3.01216021933850
H         4.88389813205966   -2.37202743863350    4.06231844690506
H         5.13700074471080   -2.50452373661024    2.32731041124358
C         7.85877377982376    0.90622564543778    7.99692765538368
C         7.15767248945121   -0.27028414979635    8.31520546887173
C         6.60059404679227   -0.39732635938645    9.58001306968226
H         6.05619373477714   -1.29351115773937    9.83393133506271
C         6.74735028265629    0.59602911514447   10.52619855253373
H         6.31995685748340    0.47676573035781   11.51060660476903
C         7.45119753535612    1.74282627865542   10.21319188374706
H         7.57256221890589    2.50243872361034   10.96783026313287
C         8.01103400918837    1.92734107181278    8.95572929387113
C         7.01555112431101   -1.41158779091404    7.33244665088266
H         7.49475120941756   -1.12719699417968    6.38581086865012
C         5.54137015152424   -1.70323968974369    7.04663685219146
H         5.01669747404233   -1.98849044789807    7.95473882672282
H         5.45816276278540   -2.52187085286355    6.33529154498431
H         5.06012690876944   -0.82111193356680    6.62923951008053
C         7.69738677943636   -2.67593188178156    7.86770651190972
H         8.72608180695909   -2.47831159687073    8.15812455357718
H         7.69707292632064   -3.45138145559410    7.10450395999876
H         7.16927262601094   -3.05637999236442    8.73858846818453
C         8.78705771617852    3.19203625576891    8.64520168859377
H         8.60076388241979    3.45116447315343    7.59413113248833
C        10.29865274445468    2.98432797866956    8.81190713581866
H        10.51964197120809    2.50698749866177    9.76569102937401
H        10.80055843233443    3.94906055393713    8.78403622782034
H        10.70367897312186    2.37861752458184    8.00715818640775
C         8.36162577276911    4.38083709753065    9.51085428929288
H         7.28029254482500    4.44623195512861    9.58935315787629
H         8.72855711272537    5.30127995549499    9.06212600586229
H         8.78424913770112    4.30526891569657   10.51118278567030
C         9.57376839265213    0.53135138963001    3.96615414769349
C        10.19199847742473    0.35418372108737    5.20600216267494
C         9.62952225035208    0.46991176933176    6.48114329089484
C        10.39324432605456    0.11725376903245    2.76450467944579
H         9.75805362145728   -0.13379130355456    1.91756001500196
H        11.01930738530054   -0.73871317212008    3.00698010720819
H        11.04862061123397    0.93813592674464    2.47406640088175
C        10.43077204305193   -0.17432885666228    7.59052896855952
H         9.99592543781901    0.01755607201120    8.56791401327536
H        11.45738162538338    0.18726876316209    7.57456114237961
H        10.46285436327606   -1.25111435890464    7.42473197421439
H        11.19880314786505   -0.04030015875023    5.17562428102044

