43
CSD_code = TAVQAI | q = -1 | S = 0 | Stoichiometry = C21H15O3S3Zn(1-) | MND = 5
Zn        3.33207939745391    1.74701976242271    4.16709062346465
S         4.55002402525478    2.24737138874094    2.04569954515924
S         1.29367322080407    1.53481252365751    5.58871299628716
S         5.11181876925793    1.92151919070531    5.96789780011989
O         2.29414834729651    1.09948996904403    2.38877599558983
O         2.07984373260714    3.53253910567018    4.20149570002275
O         4.37962476617335   -0.10443555511444    4.58843375351409
C         3.11908798141632    1.49212385350859    1.55102583984546
C         1.17430937706083    3.08546240559526    4.92275116219705
C         5.14021366609574    0.29961752763342    5.48215819756659
C         2.86278911466812    1.31047465906791    0.10603376168841
C         3.77670227812404    1.71159352391030   -0.86380831816643
C         3.49313301143230    1.52169676755044   -2.20290433576166
C         2.29886374305444    0.93289736116639   -2.58818238407800
C         1.38460142887067    0.53189086981585   -1.62726230813427
C         1.66364686567782    0.71827971180420   -0.28727767311089
C        -0.01982418708039    3.90549771123746    5.21744698610578
C        -1.04916185180468    3.44435808065656    6.03284514679507
C        -2.14730846594264    4.24519178386582    6.28174070353204
C        -2.23141658671932    5.51029879196799    5.72141235210546
C        -1.21032069571926    5.97485671728786    4.90808948902516
C        -0.10989990148491    5.17849683919147    4.65655366635935
C         6.08361459848423   -0.62961840527669    6.13834022329376
C         6.09430986494876   -1.96392497394101    5.73504107782177
C         6.95875173177717   -2.86404141969376    6.32728757205163
C         7.82073442048995   -2.44304906521796    7.32713171395099
C         7.81483297169962   -1.11725674975029    7.73172813413048
C         6.95231013980682   -0.21279965593547    7.14262940060870
H         4.70174133284008    2.16925053625709   -0.54821939693459
H         4.20610288987672    1.83410638955428   -2.95333145340278
H         2.08064744997335    0.78664058377292   -3.63745114695953
H         0.45225001725941    0.07273457210771   -1.92606446099430
H         0.96597074158246    0.41292875970935    0.47825103341988
H        -0.96879474826917    2.45732576480877    6.46170754577231
H        -2.94435284037755    3.88319917379421    6.91641433554090
H        -3.09275939132647    6.13406760306285    5.91889610495469
H        -1.27435694604855    6.96160938197760    4.47032266422996
H         0.69712027822362    5.52115800434885    4.02626146212936
H         5.41372443551814   -2.27115829125415    4.95513516433523
H         6.96218146697458   -3.89809101099396    6.01071382193408
H         8.49713142937983   -3.14807061469522    7.79132917020513
H         8.48768977697500   -0.78915657038348    8.51190532911141
H         6.93562234373122    0.82239299835278    7.44724300467696

