43
CSD_code = TAVQEM | q = -1 | S = 0 | Stoichiometry = C21H15CdO3S3(1-) | MND = 5
Cd        3.22000499844945    1.68362606990976    3.83275164166251
S         4.39077867860776    2.15778733969664    1.56276082306623
S         1.09101449730384    1.52414369015363    5.30767372579696
S         5.06618733663197    1.91905054667164    5.68707274022993
O         2.13002432706485    0.96456546110054    1.82881500883317
O         1.90705838057801    3.64889229827518    4.11173026448489
O         4.36658201320958   -0.27802462168919    4.54738622364234
C         2.97046900880875    1.38894488699030    1.02524919016159
C         1.04453398182374    3.16461220646660    4.85834602693784
C         5.09305359708368    0.24100133704477    5.40705868393064
C         2.76146139070108    1.23881551047545   -0.43464839728448
C         3.68641442595331    1.69690153310965   -1.36811364445947
C         3.44570119307411    1.53598750328881   -2.71933597473963
C         2.28315331951590    0.91879837081616   -3.15378871362645
C         1.35785108909199    0.46062697776218   -2.22974466389670
C         1.59423431435662    0.61875353220689   -0.87788564663326
C        -0.05547869189995    4.00822224541406    5.38185223218035
C        -1.02340884854387    3.51125037076920    6.24953320055161
C        -2.02846359080036    4.33806993864291    6.71399020984506
C        -2.08020678514701    5.66571517533089    6.31902873065830
C        -1.11985009194714    6.16691610884742    5.45510185965986
C        -0.11258998274433    5.34448797416088    4.98890142142724
C         6.00926053355803   -0.59215275759081    6.22073996249698
C         5.99925010560955   -1.97287813567349    6.02947445201054
C         6.83646325734655   -2.78596947580421    6.76854121302696
C         7.69314620387800   -2.23072434318884    7.70541800676887
C         7.70811119049838   -0.85846443706674    7.89981268618693
C         6.87191628251761   -0.04119323494314    7.16352183473787
H         4.58698591422682    2.17625734147121   -1.01581024638437
H         4.16745052417085    1.89360526506597   -3.44062133737536
H         2.09830323146616    0.79523130215832   -4.21231216805873
H         0.45012301971333   -0.02085573835447   -2.56680601081485
H         0.88608329745616    0.26900053665427   -0.14123748849722
H        -0.97013710218217    2.47576031680536    6.54904434733915
H        -2.77742750593740    3.94763019860559    7.38907778473436
H        -2.86841817934089    6.30966588334699    6.68509504797787
H        -1.15805219734483    7.20260797902866    5.14640542909493
H         0.64657126682041    5.71568860689314    4.31642695769415
H         5.32362104532660   -2.38555682435439    5.29494280343754
H         6.82288813252314   -3.85652795370466    6.61615011316908
H         8.34891534041305   -2.86717524124537    8.28413901389799
H         8.37670803884293   -0.42524917577068    8.63087087887868
H         6.87221303920416    1.02875543220087    7.30529177731735

