63
CSD_code = TAVROZ | q = 0 | S = 0 | Stoichiometry = C31H28AgClN2 | MND = 2
Ag       20.62703442778301    7.74455304204834   11.31140565234420
Cl       20.62733094940924    5.49309664058233   11.25896581816695
N        20.62933725437783   10.69840919253566   10.30883336577170
N        20.62466183324375   10.65372838922711   12.44508523179317
C        20.62689591540637    9.85518007264931   11.35979695041122
C        20.62949079402390   12.00229080433018   10.72787632270949
H        20.61146675759703   12.82784985407933   10.04598420500097
C        20.62538032611376   11.97399431520502   12.08081025202114
H        20.64412496201377   12.77028138703776   12.79668149859999
C        20.59658174410963   10.26323997855707    8.96009443845956
C        19.43323263543736    9.66225061939213    8.50217323499134
H        18.59787626304817    9.55884927899973    9.17815547956714
C        19.35193605042311    9.21677296850720    7.19501267731384
H        18.44815966560216    8.74617480149799    6.84090666931207
C        20.43725942000108    9.37837459586033    6.35414809044449
H        20.38624294707383    9.03604870576682    5.33150053942529
C        21.60248844692794    9.96368776820433    6.82027061569037
H        22.44035058687153   10.05687414641179    6.14873314186213
C        21.71221512853833   10.41179134179088    8.12988375939134
C        22.98993055920150   10.97624900576850    8.70763177957888
H        22.77180542464290   11.96372318775716    9.13324902492168
C        23.48634538811875   10.07993011961655    9.82457065294654
C        23.41006243899960    8.69591056201442    9.71221178934308
H        22.98467424915342    8.25119263203742    8.82297211090776
C        23.89958552850221    7.87914561814711   10.72088132136592
H        23.84889548549245    6.80564772310213   10.61470132564331
C        24.48987198123194    8.44188276755113   11.84185217979162
H        24.88330419979302    7.80767977065662   12.62237012745297
C        24.57619689805908    9.82014018226294   11.95548167453118
H        25.04078391415756   10.26628351432348   12.82406535132475
C        24.07057204213742   10.63298741779636   10.95603816828329
H        24.13475707272098   11.70863770857802   11.05482621525245
C        24.11681455551945   11.15555798837431    7.68693946967358
H        23.80711855866580   11.81049451891906    6.87541281441511
H        24.42491845198835   10.19576259473019    7.27977012725608
H        24.97774422287080   11.60254270153982    8.17968878756497
C        20.64981852766772   10.16342226292187   13.77489887704926
C        21.80876218235161    9.54048885909727   14.21433485050412
H        22.64736908353555    9.46153575079149   13.53903140937680
C        21.88120146914122    9.04200937904450   15.50277234101348
H        22.78119681211538    8.55388383479908   15.84249004967858
C        20.79176328422685    9.17322305419870   16.34370099506188
H        20.83602318532645    8.78934367267273   17.35180517558828
C        19.63074656182654    9.78022807765480   15.89518973148542
H        18.78931668246019    9.84880221778466   16.56523924459202
C        19.52962309930881   10.28099764926414   14.60407351572721
C        18.25592578845717   10.86993487413037   14.04223592386371
H        18.47834089464043   11.87147981885455   13.65329733126597
C        17.12540969824598   11.01590738831204   15.06431641370668
H        16.81232190970215   10.04302549889520   15.43498726423799
H        16.26802112236377   11.48342221037591   14.58460856777027
H        17.43383490219838   11.63980323435074   15.90042639264231
C        17.76097863438400   10.01632887744071   12.89150013927186
C        17.16889693472538   10.61223756536504   11.78609328870214
H        17.09758953229441   11.69065063418269   11.73247762859082
C        16.66398655033309    9.83850376591370   10.75575918670700
H        16.19321113205144   10.31734594886515    9.90817732286792
C        16.75938106243419    8.45729040443348   10.81157173863258
H        16.36814130040768    7.85361330716492   10.00616384892309
C        17.35715009771134    7.85216925775184   11.90615878012882
H        17.41556571905096    6.77553666041697   11.96699051437430
C        17.84527408403693    8.62935120561398   12.94633599867724
H        18.27610266975298    8.15064867384830   13.81508260602972

