51
CSD_code = TAVVOB | q = 0 | S = 0 | Stoichiometry = C26H20I2N2Pt | MND = 4
Pt        6.16655865182161    3.94266907493808    2.67732881829986
I         7.75948694465170    5.14393128295133    1.03225360004841
I         7.70630565940038    4.54976020924893    4.66546642313844
N         4.66719779028452    3.74076131879179    1.29062393827143
N         4.64151891490666    3.29589765445652    3.88532009961742
C         4.62090683936306    3.66416613993348   -0.03139977157520
C         3.53799308017770    4.20394467779487   -0.73753502308373
C         2.47171066787600    4.79345555842818   -0.08854382209559
C         2.43588708677073    4.70423413908818    1.32746361380249
C         3.56983585993738    4.16934289072012    1.96458132813966
C         1.30886014736106    5.03648311084273    2.12616489152595
C         1.40625149348892    5.45449059948418   -0.85107002709975
C         0.81149700009340    4.81255890406251   -1.93427279260014
C        -0.18104790773625    5.44383206806835   -2.66032326486840
C        -0.58088421619566    6.72661261271600   -2.32378137020974
C         0.01609935194517    7.37742877545174   -1.25672788462085
C         1.00098231133086    6.74603765591809   -0.52032796479749
C         5.71327789378010    2.96083029317083   -0.75979998758495
C         4.57033648465734    2.77824173658487    5.10292285302100
C         3.46665765441227    3.04224000537028    5.92421945676252
C         2.40747789566146    3.81313351906630    5.48867010304730
C         2.40350280924883    4.21281221202056    4.12693690309584
C         3.55455628676102    3.92519030506010    3.37162688302406
C         1.29284178326977    4.80038274809680    3.46379099165737
C         1.31515575689596    4.16446410930337    6.40376679654985
C         0.70380209942675    3.18232110332279    7.17891912797044
C        -0.31677220776506    3.51536356210654    8.04969893009303
C        -0.72861454662719    4.83254880483038    8.16812746287905
C        -0.11507593716165    5.81750371039410    7.41183605588536
C         0.89804296935070    5.48783549411110    6.53091257569728
C         5.65730450831562    1.87663204524397    5.57643024841497
H         3.56968154495986    4.18631603922537   -1.81615586066343
H         0.43543965698494    5.43817526133076    1.63596534425546
H         1.11470843098968    3.80763146003737   -2.19040946311502
H        -0.64268538198013    4.93404564958756   -3.49275825793769
H        -1.35331628097250    7.21967625649669   -2.89435145334428
H        -0.28499834385553    8.38151453506859   -0.99781228198763
H         1.48188778542206    7.26324557443119    0.29741559855782
H         5.28336754203330    2.23520376935790   -1.44915452847565
H         6.37250620714131    2.45002449322745   -0.05914894776388
H         6.30824110350286    3.66654268826908   -1.33779763456828
H         3.47526007707403    2.65921785520543    6.93316322692229
H         0.40642241371945    5.01315514709000    4.04125073513006
H         1.01667235574035    2.15297302098491    7.07888123434221
H        -0.79095625742898    2.74487770453333    8.63914617508007
H        -1.52333101838495    5.09144646252200    8.85128582334737
H        -0.42549710850573    6.84708356132978    7.50925777017544
H         1.39097477624758    6.26020546440084    5.95824829448605
H         5.22374910337176    0.95915369875296    5.97242700300734
H         6.23246498816943    2.35035782705430    6.37073102630884
H         6.33595528005868    1.63474720952519    4.75933700383630

