45
CSD_code = TAVVIV | q = 0 | S = 0 | Stoichiometry = C24H16I2N2Pt | MND = 4
Pt        1.72636636872899    4.91149288272338    0.80464910006214
I        -0.05904482153951    3.08990057758972    0.42411750294152
N         3.25348645625474    3.58541066880594    1.10625058114404
C         3.22748404024074    2.26210913454223    1.15115423202861
C         4.36710915904304    1.48618523859906    1.30663164178224
C         5.61342478516101    2.07735950577889    1.42682297760930
C         5.65902746803152    3.49123686623180    1.43930773106893
C         4.45095894759954    4.19951442408506    1.26283183922287
C         6.84705871489316    4.23423699742814    1.68209092401073
C         6.82038982304729    1.24891585738775    1.52824124833872
C         7.90192961032804    1.45514255780910    0.67414650430584
C         9.02115047345948    0.64811965924813    0.76032608806436
C         9.07794806041891   -0.36626611319833    1.70174617685619
C         8.00433409409807   -0.58058005962122    2.55048524807464
C         6.87793047346137    0.21544600699090    2.46031682636898
H         2.26707140390723    1.77910280158138    1.04425524111811
H         4.27142665073541    0.41201951434261    1.30375249156293
H         7.75387044207346    3.68980804593976    1.89472093324531
H         7.84981300645186    2.23011103516218   -0.07729839884286
H         9.85082504219958    0.81071893782342    0.08869107984715
H         9.95508621281490   -0.99159230173363    1.77019453660622
H         8.04319625289944   -1.37230758505491    3.28338332211162
H         6.04415473816666    0.05447061445746    3.12806377125407
I        -0.05801508865737    6.73452059545922    0.42408611246074
C         4.45088812708753    5.62397373125410    1.26276006493291
N         3.25333991879753    6.23798372672881    1.10605731420343
C         3.22728002923350    7.56131286709290    1.15084294410122
C         4.36693187977206    8.33730357320544    1.30637070766592
C         5.61328503327639    7.74617604692175    1.42666813461261
C         5.65894517949125    6.33230734802201    1.43922216612845
C         6.84702918195994    5.58937318041397    1.68204755486529
H         7.75382273993721    6.13384095432315    1.89467743580500
C         6.82028561861416    8.57460926619478    1.52813025565447
C         7.90179040331392    8.36848740366243    0.67395634203344
C         9.02105030899322    9.17545875814429    0.76022454538853
C         9.07793261554844   10.18966031878517    1.70183751566047
C         8.00436480875479   10.40386456340285    2.55066233534403
C         6.87791662608190    9.60790360973274    2.46039405161543
H         6.04417081223206    9.76877436327935    3.12819698075833
H         8.04329280676480   11.19545252941489    3.28370738451152
H         9.95511148608584   10.81492204642571    1.77037985532446
H         9.85068191766982    9.01296563199537    0.08850754912314
H         7.84960657689372    7.59364219377245   -0.07760780059655
H         4.27128352891255    9.41147794393292    1.30344812667600
H         2.26680808676094    8.04423408091672    1.04384882494873

