53
CSD_code = TAWFIH | q = 0 | S = 0 | Stoichiometry = C24H16FeN12 | MND = 6
Fe        2.54657346505159    8.71520219561339    9.59688285580986
N         3.93433417429676    8.80599817826912    8.11710957447203
N         1.59089744737048    7.29678052351301    8.63873999431057
N         3.51823453393029    7.30481410198355   10.55024586362246
N         1.63913206327663    9.96103347227608    8.59481669767751
N         3.44035191033834    9.96816558782542   10.60284937874771
N         2.43048492912888    7.92679101997361    6.49263672652301
N         2.67305512759091    7.91938132093206   12.69840394859393
N         1.15866255659933    8.78556908818035   11.07650642212456
N         1.09799471986294   11.23176717400914    6.63045768782484
N         1.89359428993018   11.93945830358563    4.43923615016060
N         3.97813738818430   11.23963318542203   12.56757186052043
N         3.18875886732854   11.94118285015120   14.76287393855140
C         0.76683005762369    6.46518408243044    9.29075209367536
H         0.83452956126514    6.48860623496518   10.36983564890453
C        -0.11929337731413    5.61838933484050    8.67700077569516
H        -0.75074533718720    4.97472055603433    9.26638711832054
C        -0.18961657402382    5.62605383595003    7.27639969632945
H        -0.89809097172293    4.99522974143097    6.76145670337437
C         0.66405066802780    6.43338586017772    6.58721060889336
H         0.68952949185032    6.47032210782821    5.51102906605292
C         1.60130498289872    7.25823514294042    7.27289446873807
C         3.53904261286328    8.58442322307746    6.83884060172708
C         4.34237562934128    9.02913856028817    5.76073694670070
H         3.96305142695392    8.86690552759233    4.76586771201272
C         5.54445148305345    9.63652145799994    6.00214098540454
H         6.15858355469505    9.98906808880801    5.18772500665019
C         5.96395336927024    9.78729607975432    7.32577265859600
H         6.91274084896492   10.23731918786654    7.56634954286942
C         5.12348145416272    9.36897745745693    8.33224150711082
H         5.40146406252827    9.49135416548806    9.36901706878832
C        -0.03759790654219    9.33387326340729   10.86297199639381
H        -0.31604491059340    9.45799273970078    9.82654345525841
C        -0.88475669648115    9.73556787176413   11.87061263755602
H        -1.83934814664930   10.17382969498379   11.63130852412126
C        -0.46464539340451    9.58366315158758   13.19388895836551
H        -1.08455664698290    9.92328357437478   14.00943347327221
C         0.74556795068705    8.99190844137371   13.43345729514729
H         1.12610989438810    8.82992369177351   14.42789157209684
C         1.55588393919483    8.56328558287125   12.35405744552771
C         3.51025875081334    7.26340857383413   11.91598465843853
C         4.45917106572939    6.44953033734935   12.59867504307307
H         4.43476914656059    6.48378612861475   13.67496821556183
C         5.32248689111795    5.65505382852510   11.90655188386576
H         6.04011326038073    5.03270648872683   12.41913619266324
C         5.25005773325013    5.64902535940173   10.50603889546744
H         5.88903812664520    5.01481819506339    9.91452133269776
C         4.35182752724134    6.48511394733499    9.89527073027784
H         4.28173378828986    6.50955941241637    8.81636164279414
C         1.48501884159247   10.55265650123709    7.58538973171053
C         1.56173144852843   11.58085953684005    5.48239620550151
C         3.59336417238306   10.55975224103941   11.61239898399733
C         3.51716274770214   11.58649379112976   13.71725181742812

