41
CSD_code = TAWHUW | q = 0 | S = 0 | Stoichiometry = C15H19Cl2N3OZn | MND = 5
Zn        5.85919757207379    3.17657982606623   10.43018379688150
Cl        7.23962251288171    2.13171174948141   11.83742399840611
Cl        6.82702643231669    3.86848617679042    8.43199564490403
O         4.13371308925426    3.07846312365838   12.27871519554228
N         3.86192069890630    4.05581118411307    9.69909540219335
N         4.80124940181741    1.53137629812885    9.58802613947881
N         5.86953623107694    5.14671818879865   11.24082190705523
C         3.71193702219471    3.34009173481811    8.44096796505686
C         3.92269621161527    1.86929323232229    8.65065583136588
C         3.28344163432526    0.90851948455335    7.87608758069536
C         3.57303456748178   -0.42791362037802    8.09235551841575
C         4.48705750751160   -0.76459161483296    9.07926927166594
C         5.07965757183887    0.25516001823612    9.80414333286712
C         4.19619347522954    5.45950816024267    9.53530946342372
C         5.01011735100691    5.98925710568801   10.68135336354654
C         4.92561609371061    7.31563233729939   11.09103509270132
C         5.75927504513179    7.75951894103163   12.10318192809112
C         6.65060093035259    6.86577521416286   12.67773598987811
C         6.66830158171035    5.56231641138042   12.21156438020436
C         2.70766835773836    3.83895452664925   10.55703998025557
C         3.06204692736055    3.94974322857871   12.03649488161649
C         4.54803168762285    3.03847112802918   13.62421117148121
H         2.74327377945095    3.53530185317095    7.95904147985756
H         4.52361003606959    3.66626798319537    7.77937963463002
H         2.57982089580390    1.20915172089839    7.11490689162206
H         3.09274272951556   -1.19312971002292    7.50061904880095
H         4.73828257171951   -1.79354785457513    9.27965210875646
H         5.80343664855737    0.05968077445535   10.58314697817993
H         3.30328839027788    6.08314263555448    9.37648407506238
H         4.84964756595485    5.53832003189922    8.65896629022466
H         4.22170722751113    7.98398432475145   10.61853395699706
H         5.71402759282248    8.78570136629195   12.43679762849215
H         7.31814036452833    7.17184998581779   13.46691718620792
H         7.33660159438545    4.81562361312878   12.61826527899977
H         2.35309762104046    2.82057784303332   10.38592226982425
H         1.89274442714145    4.54194840972735   10.32163442734376
H         3.33194777640519    4.98387305193712   12.30419713522122
H         2.18804126559909    3.66148300220630   12.64218265602061
H         4.78657855339825    4.04228749770222   13.99558435331873
H         5.44512289315588    2.42268461289440   13.64044620608979
H         3.76854616350451    2.59831602311580   14.25695455862395

