39
CSD_code = TAWHAB | q = 0 | S = 0 | Stoichiometry = C13H18O5Si2W | MND = 7
C         2.89817936655965    3.56801842984492    1.37381315111719
C         5.13833338182472    2.16268706439563    0.47823633043020
C         5.06706010821576    0.58038308073648    2.86342594628219
C         3.00921523159905    2.18111347660045    3.87047007517655
C         2.81476136142406    0.86483875658481    1.39197251635127
C         5.14659845404141    4.16584171293493    3.02734725569408
C         5.98378109668522    3.26524477797341    3.17792723342599
C         5.75122944764335    6.77504780463715    4.37592818934844
H         5.85154305521517    6.25590536465449    5.32371542377062
H         5.44611943160283    7.79486280010330    4.58921024308336
H         6.73325403916232    6.81422620233398    3.91601371972024
C         2.77327999657030    5.84589741582502    4.07412304434260
H         2.04317455646109    5.33337656736185    3.45424843843543
H         2.39241582157709    6.84440501304283    4.26926376244063
H         2.82004947757189    5.32148245015493    5.02475115793020
C         4.43223439135026    6.78800773882393    1.54340466153274
H         3.63333884066521    6.40827033784645    0.91436628924177
H         5.36590559779123    6.65893089759293    1.00263354194884
H         4.27005811079873    7.85512504163556    1.66707241420533
C         8.75036114865698    4.14855368555551    3.91929397505142
H         9.77480995040347    3.87561342140102    4.15278504598348
H         8.36673378754653    4.73103389533939    4.75051842545448
H         8.77165186993509    4.79377571681398    3.04685730820388
C         8.36680203432872    1.60114968578252    2.13362224594507
H         9.37775233731193    1.25284558936999    2.32524005768555
H         8.39451260105573    2.20741796847006    1.23217721821006
H         7.75564414643383    0.72859632676192    1.92116863132959
C         7.57594108513443    1.55188786219891    5.20474718880480
H         8.56732051176368    1.33524117267395    5.59299750010199
H         7.07827036094936    0.60220094719824    5.03509554465491
H         7.02666891760708    2.07635676627825    5.98218940551867
O         2.14928665486931    4.25780406510149    0.85450275428950
O         5.70827296428858    2.12480171607639   -0.51179398773130
O         5.52489495669861   -0.40960943184785    3.20477015671540
O         2.36517750736289    2.15573765104527    4.81440418349471
O         2.08071364182912    0.10971571379386    0.93825473796505
Si        4.48490378774326    5.91253515070650    3.23725474525234
Si        7.68547975462556    2.59456557764338    3.61131132805454
W         4.07307021456161    2.16791158648906    2.17398014037606

