64
CSD_code = TAWJUY | q = 0 | S = 0 | Stoichiometry = C25H28Br2N4O4Pd | MND = 4
Pd        4.72715164505965   14.78589951120422    1.27411468915753
Br        2.66414472130980   13.52339857493785    1.08885048759857
Br        3.62741481490745   16.89806501330370    0.92765777162456
O         7.24693932019834   12.56035792733767    4.95423155354847
O         3.79418238267413   16.85439199227071    4.63379221109975
O         7.09327446559851   19.66418778186323    4.21461083073791
O         6.71205864344349   20.77157964192877   -1.18469833137648
N         6.70409682841930   12.74512071601816    0.61206939049639
N         5.70726032530067   12.13096444710074    2.41635896626970
N         7.43230028016346   14.93260587893192    0.21325369282420
N         7.23447930626907   16.62322889830876    1.52622400917668
C         5.72146915377639   13.08145112927381    1.47586205213908
C         7.31123095937271   11.58200759314115    1.02340201409967
C         6.67378987623930   11.19878958919232    2.15498091609335
C         4.89092308876596   12.23448487116684    3.60926719575638
C         5.21863992765904   13.54896657886921    4.28049781942760
C         6.45260239024687   13.68242885068571    4.93789173758074
C         6.78772306503479   14.89829279117829    5.51026507565164
C         5.92715775616432   15.98440912581900    5.42818200578131
C         4.71191044490479   15.87057220690170    4.76504752306970
C         4.37240814802360   14.64137665557091    4.17699669052626
C         8.42420970232701   12.59182241396804    5.72020297391501
C         4.06439993061586   18.12422930663308    5.17682572692718
C         6.56253486409464   15.57525751411779    1.03537640890597
C         8.64181857299600   15.58217240823392    0.20374102059379
C         8.51012200650321   16.64948870918083    1.02358820094748
C         6.71357808557477   17.58433379205476    2.46459424781841
C         6.82645003503456   19.00017078463123    1.96692970841091
C         7.00976701125191   20.03763849730049    2.89318417260987
C         7.09131608585519   21.34143895560706    2.43671136236647
C         6.99618742063594   21.62922923735421    1.08231617003570
C         6.80721498010892   20.60888340676171    0.16272751204858
C         6.71729309558230   19.29522665762267    0.62485544992280
C         7.25046171689019   20.67486198627005    5.18040318988785
C         6.67641903964650   22.07974426820366   -1.69969635992269
C         7.10579045721952   13.67226980462843   -0.41593421686570
H         8.11279815443404   11.12703321638940    0.47894102686564
H         6.83438232481826   10.34976406555768    2.78621536959153
H         5.13030629742885   11.39486608241986    4.26355003212838
H         3.83423260603890   12.20549664566578    3.32535448088717
H         7.72435467181784   15.02412347647757    6.03037874936855
H         6.22161941781896   16.91315967739435    5.89024176467234
H         3.38249205879301   14.55445155335795    3.73415873196244
H         8.84829404509180   11.59081991709626    5.65219839414267
H         9.14576086018964   13.31453466861763    5.32396818061214
H         8.21581373328448   12.82523485942760    6.76897434724147
H         3.21832912050342   18.74509522283050    4.88880882056160
H         4.13298693674856   18.08163794178850    6.26970003118237
H         4.98284706745713   18.55418715437681    4.76759220878301
H         9.47034917389044   15.24630185749259   -0.38520404603507
H         9.20569272982944   17.42067939399022    1.28189982245289
H         7.24591787067554   17.48730959485076    3.41618322905606
H         5.65500168199143   17.33911586654150    2.62423201340287
H         7.22806002351092   22.16074732319088    3.12414481159416
H         7.06458384252251   22.65907693499457    0.77091367990838
H         6.53328166809327   18.51681191284994   -0.09762071003253
H         7.28324298066764   20.16275138765612    6.14128575834073
H         8.18348683467591   21.22900515209965    5.03626020046188
H         6.40665496413027   21.37152048359486    5.17241169114671
H         6.53409956899199   21.96994463306783   -2.77351653550334
H         5.84283646369145   22.65242582769829   -1.28165884209457
H         7.61524938112232   22.61293390471275   -1.51304873569856
H         6.26322569735599   13.82319450347746   -1.11721610510427
H         7.97497927658344   13.28912922475593   -0.95673223880339

