91
CSD_code = TAWJUX | q = 0 | S = 0 | Stoichiometry = C42H30Br2N10NiO6 | MND = 6
Br        3.64742872342788    1.63085939292623    8.69780239613607
Ni        8.84533139914382    6.05345448638614   12.90712220590381
O        11.18739912148953    5.74364578433801   13.34398874349342
O        12.07704286900970    6.16053244508246    9.74273434550552
O        12.41573142937289    4.27312165162055    8.76281226929714
N        12.54187910042566    5.04012905455640    9.69639338559336
N        10.69771111129374    4.45036267776896   11.50145249361138
N         9.39287509273845    4.68744580394524   11.66839631720955
N         9.62704151806069    1.57333571622445    8.53251706751080
N         9.28828209675210    7.38639669804090   11.54480709424653
C        13.39216281711051    4.62192215051864   10.78027533657579
C        14.67048158038707    4.17008750893675   10.48896884818580
C        15.52547643487169    3.84278714511365   11.52699316921711
C        15.10448561101174    3.97262388378416   12.84209833433214
C        13.82041754213509    4.40386686553929   13.12363026892819
C        12.94199306979959    4.71755191280167   12.09496143349986
C        11.51412060421444    5.04540979915970   12.36606074595803
C         8.51841790291042    4.05154243553935   10.96079631285717
C         8.73677767283497    3.03804605049590    9.97817039864968
C         9.90644893318665    2.51663007925986    9.47011727034037
C         8.27370990384139    1.44246614964271    8.40009970723009
C         7.51506932737715    0.61089840223017    7.58630386291742
C         6.14178692334603    0.68736073396306    7.68692181439083
C         5.55304530524469    1.57769244061080    8.58624240566070
C         6.28438201953762    2.41461833365350    9.39850574182456
C         7.67023274067188    2.35035658174530    9.30346969546830
C        10.42983863552352    8.06749535159496   11.54406178390213
C        10.81991110883775    8.86957515755314   10.48563905317850
C         9.99102070812846    8.97138993160707    9.38239626917931
C         8.79165660822818    8.27760543824992    9.39323471867744
C         8.47971138038326    7.49692265959777   10.49163488933247
H        10.31887539994656    1.07875123088151    7.99461603665643
H        14.98633160371200    4.09545507149232    9.45906721110440
H        16.52290535628986    3.49367370186769   11.30871902215340
H        15.77461033440169    3.72252658470748   13.65045331852163
H        13.48075737322031    4.49440312837396   14.14381476047143
H         7.48533879136776    4.32346226762290   11.13327972902590
H        10.91552614375366    2.77331890576878    9.71686158316277
H         7.97982009282967   -0.07713114495704    6.89672973841696
H         5.51493866559890    0.05825767633748    7.07432866067690
H         5.79846961572854    3.08844342643575   10.08620325634578
H        11.06260233428630    7.95556509990329   12.41429376279838
H        11.76344572788108    9.38940978036182   10.52504009719837
H        10.27318269313030    9.57420798554081    8.53220149294512
H         8.11063219330230    8.32871216490313    8.55809951903248
H         7.55198585468949    6.94012547866927   10.53686551314147
Br       14.04315220153061    1.63198725628369   17.11800554995170
O         6.50322920028046    5.74360058266521   12.47027206758837
O         5.61418054336068    6.16017197238278   16.07192278026368
O         5.27537885405526    4.27261131945018   17.05152517047926
N         5.14926707648273    5.03978890629315   16.11808159942822
N         6.99300812627683    4.45024384013720   14.31271737955514
N         8.29785200600497    4.68715505289303   14.14558801172432
N         8.06349871288833    1.57294566615379   17.28129142174244
N         8.40241489823225    7.38635542626060   14.26951266698763
C         4.29873258417039    4.62191328901407   15.03425642935844
C         3.02036889064879    4.17030743882418   15.32570875591626
C         2.16512539577520    3.84336386147951   14.28777899615205
C         2.58593016774999    3.97328820299236   12.97262673120285
C         3.87006352666906    4.40422758683370   12.69094473874476
C         4.74869854837462    4.71765246855356   13.71952006379548
C         6.17655225719657    5.04550243219180   13.44828085990795
C         9.17230000614778    4.05118820975452   14.85315111481860
C         8.95388057025395    3.03774100129403   15.83580233435343
C         7.78417105349134    2.51609181846283   16.34352231958852
C         9.41681857585956    1.44244897967932   17.41419502635061
C        10.17540229231854    0.61117113613964   18.22833993423956
C        11.54869843286238    0.68798160909854   18.12817793349897
C        12.13751287861170    1.57837818447488   17.22896913044855
C        11.40623349126617    2.41504899721291   16.41639346527987
C        10.02036932876231    2.35042375909347   16.51095963903362
C         7.26087509056957    8.06748967325466   14.27022066548374
C         6.87060123790949    8.86924331933783   15.32881105777229
C         7.69924664564467    8.97068446425531   16.43226599497528
C         8.89864469451044    8.27694622310399   16.42143487764504
C         9.21080030137822    7.49658465203362   15.32285420732924
H         7.37160549276523    1.07825601066710   17.81902077158278
H         2.70470074711630    4.09551136762707   16.35565366662760
H         1.16772561671898    3.49423659278237   14.50617382558378
H         1.91565072986583    3.72331477210980   12.16435290843435
H         4.20955705681862    4.49490236046915   11.67071074564715
H        10.20536813636209    4.32323973582540   14.68082951383285
H         6.77511667728852    2.77245835048067   16.09634803366170
H         9.71059952504678   -0.07687901923804   18.91785872710227
H        12.17550232826504    0.05913283674678   18.74107840828981
H        11.89219850319538    3.08889814952402   15.72875707526459
H         6.62821978808395    7.95569227287126   13.39989649309800
H         5.92710428477959    9.38913654105753   15.28934276152613
H         7.41699579898902    9.57336667491110   17.28252043865619
H         9.57950726104617    8.32782594600825   17.25670303096631
H        10.13844899292828    6.93965599809429   15.27774059561628

