44
CSD_code = TAWLAG | q = -1 | S = 0 | Stoichiometry = C22H15FeIN2O2P(1-) | MND = 6
Fe       15.13136398008815   11.28562430885749   10.84706212450502
I        17.51136244885310   12.08625927021548   11.60665787083049
O        16.24330535089255   10.82719100075037    8.20561036782094
P        13.37834102992464   10.11255174449906   10.56123082303312
N        15.63502406875114    8.59288389702751   12.25208500792385
O        14.00317756464913   13.84709882072204   10.10519677434034
N        14.04557832023991   12.21098535858343   13.54448106069897
C        14.51146337321511   12.85046481633114   10.37675105445363
C        14.42711491464840   11.84914725888706   12.52172972674338
C        15.41492217378961    9.57912307496041   11.69757241954293
C        12.42037313167455    9.60212369304536   12.01967777980381
C        11.69183460812164   10.57387432195259   12.70335742706478
H        11.67051542051773   11.58895261226713   12.32711481870652
C        11.02253274043083   10.24644272098972   13.86640862728136
H        10.46371280774238   11.00473666467665   14.39582422246863
C        11.08707263883615    8.95410227315960   14.36211573462714
H        10.57065108108864    8.70121368288398   15.27778759212840
C        11.82818108626665    7.99185761220004   13.69718094038737
H        11.89584861783506    6.98905022032402   14.09507355186039
C        12.49976798082315    8.31193198398519   12.53117271139931
H        13.10440759290969    7.56977230931839   12.02803131471055
C        13.46196206728774    8.53604443247465    9.62644738138742
C        14.66138824319901    7.99107678855782    9.18897491334701
H        15.59631661369605    8.47352944910432    9.43401441966979
C        14.66799536865032    6.81233284454912    8.46264626143749
H        15.60781060734802    6.39566026773275    8.12987983039488
C        13.47909476770240    6.16896645404290    8.16802586936022
H        13.48591806039847    5.24853937938459    7.60099784972332
C        12.27768255286576    6.70448889132931    8.60633071119390
H        11.34626081021298    6.20215999166908    8.38335998765710
C        12.26766981295551    7.88122399531496    9.32847933917551
H        11.33016690939365    8.29752866425915    9.67324083695417
C        12.06734347764221   10.87844569333391    9.50682762841705
C        10.70200883957928   10.88776974243090    9.77228233699050
H        10.31719569954704   10.43301473259690   10.67489392757219
C         9.82411776420788   11.48549294919235    8.88456220527277
H         8.76582216599011   11.49503562081491    9.10754281594798
C        10.29139218152855   12.06899681225307    7.71978410687718
H         9.60111655371595   12.53969112626400    7.03396138760424
C        11.64722917558046   12.04645310518915    7.43661193202212
H        12.02045492795118   12.49406145569324    6.52639618938773
C        12.52451015644768   11.45601904267682    8.32495480370383
H        13.58513349742232   11.44144226935949    8.10710720143127
C        15.81485881526142   10.92733864603454    9.27205611418392

