42
CSD_code = TAWMUB | q = 1 | S = 0 | Stoichiometry = C16H20ClN4Ru(1+) | MND = 9
Ru        2.46564578184402   10.05081489558063    1.71685891403694
Cl        2.08716963573201   10.40536885212944    3.99410692595286
N         1.54404720158515   11.89277226256160    1.55541326728183
N        -0.27845401250246   13.12327755227072    1.55766779708888
H        -1.24539964990319   13.40594516705204    1.57672635821537
N         0.46458122893912    9.54616427427253    1.73826160266605
N        -1.65390165942865   10.13055292365693    1.79223684445233
C         4.74943109144828   10.23991814269023    1.64406259723908
H         5.45194859301356   10.90625475165939    2.13010906777014
C         4.23700272972777   10.55237049553973    0.36853740772218
H         4.54516606153458   11.46772270393982   -0.12351163436906
C         3.42704685733673    9.63104337500183   -0.32964292202586
H         3.11324144303612    9.83826881854966   -1.34539542479359
C         3.09345368754618    8.40959402337935    0.28479645341591
H         2.52011338102975    7.67389314647070   -0.26851874549483
C         3.62532813067777    8.07267825970862    1.55502478322481
H         3.47093796700535    7.08130930929529    1.96243454757336
C         4.44204087283436    8.99176545647153    2.23237066369505
H         4.88468062183878    8.72350178070665    3.18593534050627
C        -0.27234382072412    8.42417739037401    1.97180593254266
C        -1.60423810071357    8.77562957878895    1.99992757271663
C        -0.38585158837888   10.57457811663277    1.65496522119240
C         0.20670318246224   11.86290839610027    1.55398491583295
C         0.78876486009845   13.98357011636218    1.59282445689405
C         1.92274903572600   13.20083602967689    1.60024612113991
C         3.34221000254272   13.62298888842509    1.70725042592043
H         3.88316547250519   12.89486672880233    2.30849052569287
H         3.40833887713045   14.59259810987644    2.19169526000891
H         3.80886521602147   13.69880168171819    0.72629980270530
C         0.60633124494790   15.45303235874189    1.60433803821233
H         0.15602458921490   15.79220011309659    0.67172602953753
H         1.56326016610084   15.95023458535233    1.72271959816874
H        -0.04578664265597   15.75105885070746    2.42398672938308
C        -2.83464604754741    7.97380661127539    2.19040101961329
H        -2.58295178722505    6.94470337462732    2.42364072953533
H        -3.44323497332481    7.98241490634035    1.28644993566267
H        -3.43204753852345    8.37911188635267    3.00572737598448
C         0.35086314528905    7.09944116206651    2.21736583419190
H        -0.36573136564299    6.42474954033649    2.67473459135994
H         1.19289847051953    7.22842691456471    2.89592987644614
H         0.70444198351373    6.65039189634979    1.29082249071725
H        -2.49776434463255   10.68105657249419    1.79099367238219

