44
CSD_code = TAWMIQ | q = 0 | S = 0 | Stoichiometry = C22H9AuF10N2 | MND = 4
Au        5.06121942544429    9.32821967446936   12.66120070536905
C         5.22376505517084    7.31992104714077   12.63816979381909
C         5.13334144702307    6.40663017374385   13.67606617649902
H         4.92819742474494    6.74933221828317   14.67891223528898
C         5.30120395482028    5.04605712638347   13.45514380638590
H         5.21919821490420    4.35903092563534   14.28357270221518
C         5.57173527959177    4.56860084208948   12.18618397669148
H         5.70067019583171    3.51072973137759   12.01669257876384
C         5.68053657274461    5.45297024452055   11.12680929099808
H         5.89649845215979    5.08934379916329   10.13387301349009
C         5.50799809456863    6.80572944943233   11.36808667103389
C         5.39573669406329    9.06666574919257   10.68636007267613
C         5.78066202949445    8.92121046241810    8.51386375657543
H         5.91215445147241    9.27014552467586    7.51051342778185
C         5.83944884207222    7.66272080816264    9.02028891986368
H         6.02951466060402    6.73140247932148    8.53010415021328
C         5.35565942178963   11.18926603025338    9.40171557442236
H         4.66553273719363   11.56721380979453   10.15356128175572
H         4.96935837416303   11.41240473619365    8.40824876422285
H         6.32046540097969   11.68480319236654    9.52537361698393
C         4.67304040886685    9.39054565591310   14.61391087659315
C         5.54483550812369    9.93169067236711   15.54603276046248
C         5.23730516495809   10.03380783029067   16.89860327340425
C         4.00226547759691    9.58409658957007   17.35137846695327
C         3.09777458660547    9.04132844869490   16.44484986454664
C         3.44672619743045    8.95781288122402   15.10159977973419
C         5.05185588449088   11.37647246971762   12.73754277206141
C         4.01071965531829   12.14455597374504   13.23933191771462
C         4.10765804275474   13.51711291344944   13.44693663218868
C         5.29906448619154   14.16946859106412   13.15162121329306
C         6.36857988125742   13.43761343142248   12.64778230331612
C         6.22358888464595   12.06869957598853   12.46111155944360
F         6.74104680723864   10.38387443651289   15.12890880006907
F         6.11498513113861   10.56099196943876   17.75952713295829
F         3.68787279577934    9.67070039781367   18.64684706546828
F         1.90896935621494    8.60164641417894   16.87056549324130
F         2.56325762567989    8.42481513143833   14.24295634118907
F         2.84292831832164   11.54550640796256   13.53317290794933
F         3.06775112932882   14.20959680005540   13.92516639253429
F         5.41167332380657   15.48745333484111   13.33829080272703
F         7.51562188813834   14.05318072665044   12.33571623350751
F         7.26549202634813   11.38413652288804   11.94561465456903
N         5.59690931964107    7.77651510606603   10.35580754542842
N         5.50108137131302    9.76757969421444    9.54988469561238

