40
CSD_code = TAWNIO | q = 0 | S = 0 | Stoichiometry = C12H21MoO3P3 | MND = 6
Mo        2.85471232241104    3.97647208796909    2.38556279606044
P         0.78371864831694    5.05215839803499    2.86498259093676
P         1.85474696022889    1.93755406036676    3.09941270125150
P         2.14739005587969    3.61911973566162    0.14294599000331
O         5.53475588273093    2.65872945742978    1.60699525221427
O         4.14151677905775    6.65300355024149    1.53811365693076
O         3.93221680440002    4.41855764511100    5.24547135093579
C         4.53248976886197    3.12048731778026    1.91059805132693
C         3.64273177647011    5.66988005992118    1.84084664048826
C         3.49950131922013    4.25354740922344    4.19953369357018
C         0.64612042676906    6.60142115444718    3.79441317775667
C        -0.74122598123265    7.13431149382115    3.98838381626529
C         1.74258593487443    7.19020673911900    4.25309297029344
C         2.77717812981691    0.55123779396886    3.81682937517525
C         2.02104262268758   -0.73404623652094    3.96486474502063
C         4.03603076010444    0.72794528692677    4.19509697459021
C         1.71999366716874    1.92774928216850   -0.34686128037989
C         0.48700072469925    1.59337237540178   -0.70758863584778
C         2.84613324768611    0.95537587208595   -0.19280598059283
H        -1.34619916835034    6.41739593991155    4.54465004981996
H        -1.22224921012454    7.29537042747001    3.02300650666643
H        -0.72332908395808    8.07512226729790    4.53339795074196
H         1.70628425243729    8.11447220772136    4.80832620555155
H         2.72061310246708    6.76456284438108    4.08733351512402
H         1.79830094240821   -1.15389650422595    2.98307218300904
H         1.07204396447912   -0.55564987891045    4.47200252082485
H         2.59547811951161   -1.46155358041706    4.53357081119369
H         4.61400019163789   -0.06164273498516    4.64939175232877
H         4.53461725396117    1.67666868822693    4.06217339236297
H         0.22061649056438    0.57609574933983   -0.94960222001965
H        -0.30279658203861    2.32488456551699   -0.77610192026198
H         3.13156908502458    0.88117775959587    0.86291410251235
H         3.72351565306329    1.30488589745205   -0.73995459889881
H         2.57065009177173   -0.03394175627940   -0.55224198318835
H         1.01172602381713    1.17335333172252    2.28573629105861
H         0.87463362212556    1.99462664163453    4.10338570767206
H        -0.26550305347610    4.38206682601839    3.51165034309647
H        -0.06070695438677    5.42218799018252    1.80953354920761
H         1.06749781929114    4.27290479753613   -0.45494305886711
H         3.01549758963533    3.90082503765034   -0.91208898593620

