98
CSD_code = TAWNOU | q = 1 | S = 0 | Stoichiometry = C42H45ClN2O6PPd(1+) | MND = 4
Pd        4.15987076943557    4.56025177061520    2.32132786844711
Cl        3.04431139114355    5.30732808673098    4.18077315893368
P         5.32580148539668    3.78514503718218    0.52731273364164
O         3.74571102020013    1.72025317109384    1.04481837069653
O         5.01078489191653    4.42192939110087   -2.51097264410721
O         5.70757758747618    2.51442144535070    3.18630990920230
O         7.05713056006780    2.49356575351037   -1.24975665657643
O         4.01125919812844    5.98222394954188   -0.14427676544000
O         8.37568093061113    4.45198849490946    0.24306596316285
N         1.32169814267430    3.63762090709481    1.65135679131694
N         6.81093336598351    5.95159171703455    2.98687966268177
C         2.43642241676410    3.91847861145026    1.82896743139978
C         5.80201599712412    5.38998165357867    2.84625229011414
C         0.02127837140785    3.25509729267938    1.58382612517504
C        -0.63690105826243    3.26892495091456    0.34952483027922
C        -1.96240004212578    2.86143007067728    0.32313657670079
C        -2.60393033306168    2.46151368272864    1.48270953036832
C        -1.93309681312120    2.46008996280233    2.69488949017413
C        -0.60767446740627    2.85572183494149    2.77365525052862
C         0.05646682372389    3.74298489861886   -0.89030508239210
C         0.15188093536307    2.85838045561066    4.05950663185467
C         8.00751424300074    6.58397222244470    3.05729117419132
C         9.15256693667328    5.82905632094234    3.33959225123217
C        10.36867806647178    6.49319744050057    3.36798645700856
C        10.43721969330902    7.85585964095771    3.12746385677353
C         9.28963516259815    8.58265325288614    2.85663295322000
C         8.05059543957527    7.96357934823871    2.81895386099455
C         9.03207923297267    4.36051700442795    3.59525567947960
C         6.78755042543763    8.71134536764058    2.53832146709388
C         4.33674987386451    3.00771518150539   -0.77550020597566
C         3.57757224057385    1.93569625497172   -0.28902881238487
C         2.74436527067143    1.21629515156352   -1.13209425025896
C         2.67550959964990    1.58646505366592   -2.46501171956276
C         3.40777526963405    2.64906073674461   -2.96136333897639
C         4.25080586495574    3.37477063691040   -2.12168626487624
C         3.05624969964266    0.65025269128065    1.65665612647694
C         4.98103575990966    4.82813878534793   -3.86079352048032
C         6.48753199011791    2.47130657013760    0.97776281960682
C         6.54825632286474    1.95425133569090    2.27633701815490
C         7.43695075278673    0.91844811658478    2.54968859637540
C         8.22402121229885    0.40604119150852    1.53298084165012
C         8.14783643346811    0.88588718233968    0.23666725671947
C         7.26443959928775    1.92008069353617   -0.04509680202257
C         5.70266191852311    2.03279722813900    4.51863916514005
C         7.82280042792480    2.06559912556242   -2.35221293807790
C         6.19749961113625    5.23058932740394   -0.13279826354497
C         5.31248264756141    6.28324556587288   -0.41327492196371
C         5.78171757721413    7.49810682823476   -0.88703545924254
C         7.14949851007685    7.67034724115487   -1.02897976453979
C         8.04196144177039    6.67797468946287   -0.67181210678591
C         7.57508908145038    5.45285672854213   -0.19935818687402
C         3.01454216670300    6.94632756321511   -0.43103227651574
C         9.77194289083317    4.56791857673587    0.07416898288914
H        -2.49447172027100    2.86294254305733   -0.61582772077994
H        -3.63618972480794    2.15034325834554    1.44257783933464
H        -2.44447220912394    2.15063455041494    3.59328765940005
H         1.13390887253048    3.59627907899881   -0.83187103256114
H        -0.32424382660105    3.21711511532618   -1.76231006346360
H        -0.13594608044561    4.80727301719465   -1.03312636333211
H        -0.50384293358084    2.62522532095062    4.89298332471710
H         0.95475342793997    2.11982744446151    4.03048932295857
H         0.61734040795239    3.82852025855167    4.23680372250492
H        11.26876058930506    5.93806503518812    3.58516299376519
H        11.39281104474345    8.35608312765721    3.15666167005671
H         9.35448877432807    9.64479445768297    2.67774270207326
H         8.57398119981320    3.86149410361644    2.74004674104190
H        10.00778222160435    3.92065343856088    3.78146261147706
H         8.39731146681462    4.18315838481689    4.46371518046321
H         6.99227870289335    9.76654782089037    2.38341686940714
H         6.30000706086985    8.31148430222699    1.64789444308890
H         6.09126794143132    8.60856637351887    3.37100291690057
H         2.15976781727895    0.38516642849742   -0.77425640039111
H         2.03380061203167    1.03274956107146   -3.13265593924415
H         3.32210690730783    2.90162567610240   -4.00534470731688
H         1.97298306857091    0.75087039450924    1.53797446316932
H         3.38089350634082   -0.31221913011307    1.25082274695343
H         3.30890767295578    0.70498235165256    2.71442848296175
H         3.98131037604228    5.15680179071263   -4.16079188954412
H         5.67113132791827    5.66807140987459   -3.92636888612024
H         5.31575865594136    4.03062208167982   -4.53064058569280
H         7.51922364245233    0.50369800438530    3.54055527190604
H         8.90941940826706   -0.39722638630403    1.75600262709435
H         8.76424867743121    0.44953687134608   -0.53207934235538
H         4.95342421748805    2.63448882605613    5.03698000242118
H         5.42156085970910    0.97615749783497    4.56080745727258
H         6.67695949295352    2.16984698950772    4.99700217994029
H         7.61412314512646    1.02056465787448   -2.60106872453923
H         7.52524500263724    2.70136955401213   -3.18407342319809
H         8.89389329329009    2.18962487955171   -2.16822928309810
H         5.11162673136207    8.30486487554310   -1.13463801609519
H         7.52762112592444    8.60998170699683   -1.40081935891180
H         9.09913889075627    6.86794268377799   -0.75462928970317
H         3.16819480832876    7.86095595901499    0.14884812912855
H         2.99169389256503    7.18315268274537   -1.49857212127607
H         2.06994403654302    6.49073643184997   -0.13495645068805
H        10.18677908468137    3.62419718244284    0.42595671035183
H        10.03725940599697    4.71344949820396   -0.97664087033446
H        10.18190258796430    5.38710369749387    0.67285325933860

