40
CSD_code = TAWNAG | q = 0 | S = 0 | Stoichiometry = C12H21CrO3P3 | MND = 6
Cr        9.12539248911880    1.31471248669902    7.55610093802898
P        10.72275236345940    0.94371349293115    5.95227164850976
P         8.70493258651875    3.39078535896645    6.68344861330282
P         7.49732630405866    0.37927842467487    6.23799784339945
O         7.21950308313922    1.74987004615916    9.82200847714824
O         9.67035745232725   -1.31551445394808    8.87955573873393
O        11.16475725192036    2.43442782834575    9.44097758315817
C         7.91305941305932    1.59910938732839    8.90693326140826
C         9.46027210705753   -0.32499282956186    8.31773246859724
C        10.40120227984173    2.03120456055489    8.66893051123613
C        11.55995114032320    2.38178904521987    5.13266735290507
C        10.60653792756058    3.45755225793392    4.61361246342950
C        10.00498862295242    4.30346828266131    5.73611320941593
C         7.22852795110335    3.71251306223443    5.60454803369831
C         6.06066268721111    2.79858119579379    5.97679786775783
C         6.21214223263646    1.40647590920522    5.36509041395860
C         7.96326338144203   -0.77528029980776    4.86944286428016
C         9.02264658881675   -0.16327881120048    3.95173216351050
C        10.42808694329917   -0.23620399919003    4.54809210061366
H        11.94609693580735    0.34240768946242    6.30830205337674
H         8.45531051819859    4.44832126150105    7.57909719027986
H         6.59115447425674   -0.51620493123798    6.83586962208609
H        12.22092850636047    2.81379772518505    5.89284578130151
H        12.18485911297079    2.00369798793323    4.31555251574123
H        11.15337845296126    4.11320943975422    3.92846386311321
H         9.80326204945869    2.98597621788991    4.03714266466089
H         9.56492848730259    5.22080230525119    5.32829862114143
H        10.78554281419199    4.58457743231703    6.45088434272939
H         6.94390162026321    4.76389164814571    5.71667008531676
H         7.50992461873322    3.54907274267773    4.55829715559479
H         5.12518800174067    3.24325482469365    5.62453488406052
H         5.99978085577909    2.71384720585434    7.06835240601740
H         6.49421171147201    1.50005705578308    4.31051264349697
H         5.25956836915806    0.86923683250014    5.41283328526620
H         8.34783117932693   -1.68969161846149    5.33235662070502
H         7.06210384358368   -1.03063562917550    4.30050474023331
H         9.01793394373035   -0.69095081012853    2.99282750370531
H         8.76633472165875    0.88292379158543    3.74813725622069
H        11.17907057714613   -0.05486336466505    3.77107692364199
H        10.59722640005335   -1.23923875186525    4.95538628821839

