35
CSD_code = TAWNUD | q = 0 | S = 0 | Stoichiometry = C16H12AuCl3N2O | MND = 4
Au        6.59130206949027    3.78659499489223   10.81835677130466
Cl        5.17709648253448    2.24208427788181    9.92016074339201
Cl        5.51218752391384    5.48643537044440    9.82223720761050
Cl        8.09520607277754    5.19170836175323   11.80556010761264
O         7.42403350886065   -1.10667568260733    9.45153197189486
N         7.67368274370672    1.95004227575314   12.95836371149430
N         8.15875882305419    1.27244334593276   10.97278815571040
C         7.56223130884104    2.25460183529029   11.66255642213407
C         8.33508348457681    0.76268122230191   13.08861866355847
H         8.53873377396074    0.32230572936434   14.04278314160187
C         8.63641439214385    0.33005092613698   11.83843865706970
H         9.14223713524251   -0.55005937417298   11.50055333024781
C         7.17487673100607    2.75208063202374   14.04223978747886
H         7.50384061081166    3.78406733222200   13.91050525712061
H         7.55644685558976    2.36243145270736   14.98337403563026
H         6.08398224069375    2.73125572764622   14.05814906546704
C         8.22104388760237    1.20972352981433    9.56422162337941
C         8.62233709666534    2.30303720447906    8.80680881010682
H         8.96238508430328    3.19572520058739    9.31037475192562
C         8.60723238911476    2.25360391976658    7.41793794487198
H         8.91664418620266    3.12555910054376    6.86370035083802
C         8.19358204018661    1.12000684457651    6.74408387587531
H         8.16522568546810    1.09416171614526    5.66646372124672
C         7.80978841406469    0.01098024132578    7.48508966549419
C         7.83255112092230    0.05804305161760    8.89330078478977
C         7.32934212775932   -1.30883456602763    7.16819720362911
C         7.11002018719454   -1.93469345245792    8.41007516031689
C         6.64264317112944   -3.23210319207737    8.50559907910576
H         6.47754903022468   -3.69382839311244    9.46554799907588
C         6.39285157940891   -3.90097119575942    7.32006741308647
H         6.02451130154981   -4.91486469687920    7.35533064573730
C         6.60377167107506   -3.29537573410112    6.08388411373280
H         6.39444384196174   -3.85213658456044    5.18320251678593
C         7.07179844446803   -1.99931425197822    5.99096003776176
H         7.23246498349239   -1.52976716949254    5.03323727290541

