55
CSD_code = TAWQIS | q = 0 | S = 0 | Stoichiometry = C24H26Cl2N2Ru | MND = 9
Ru        7.12469186757877   10.76649552955438    0.15327123721949
Cl        9.35282336703042   11.30189297293781    0.64112414728204
Cl        6.82452326912249   10.08360210123361    2.38648164924044
N         6.44117766028664   13.32484732988927   -0.85628620662142
N         7.07337316896610   13.65008366331810    1.19428276595767
C         6.40938920734086   11.15758474801408   -1.81812817247007
C         7.62488361350023   10.44140160077022   -1.98275533307903
C         7.71470613022178    9.11323503069952   -1.46825623316837
H         8.61956976717107    8.54598130885780   -1.65367962169038
C         6.69856658479818    8.55795091095633   -0.70471601696230
C         5.49209405896440    9.30802425457224   -0.53409673087829
H         4.67363753561694    8.84531751367782    0.00866197553179
C         5.29077356727750   10.54582440771295   -1.15269011254495
C         8.79774813281561   10.99875762195428   -2.73751549546816
H         8.48524157032538   11.54333763558748   -3.62758318249675
H         9.46310893156440   10.19393154776521   -3.04212619335035
H         9.36865780806851   11.66774871978754   -2.08885062528949
C         6.80561872486483    7.19461152924892   -0.09220483197976
H         7.77329196176668    6.74600440307805   -0.30496004019773
H         6.01899597398204    6.54298148602483   -0.47489739108100
H         6.68728358908906    7.26586027982644    0.99019667473242
C         3.94393645452235   11.21256324180134   -1.10434493797003
H         3.23924054967652   10.59271028863358   -0.55483310375087
H         3.56156498474512   11.35494863220769   -2.11659429511215
H         3.99368561872442   12.18414292330373   -0.61431605212663
C         6.31831604748366   12.63602038325205   -2.12521480228504
H         7.12239929369792   12.95998393916622   -2.79798313319255
H         5.35896614082864   12.89532624051637   -2.59047373875224
C         6.84915642303154   12.72292495917258    0.28431651105766
C         6.48234794610843   14.77409481431848   -0.77192293879203
H         5.50589593241149   15.20351434971438   -1.02004191191027
H         7.22531151783486   15.17561258656883   -1.47102319711908
C         6.87401415791864   15.00295980915819    0.69238926355666
H         7.79754304043169   15.57894247099383    0.80075125355601
H         6.08418440184780   15.50053464788206    1.26312597388520
C         7.44664546635271   13.44523338159730    2.57447499442387
H         8.46819787162685   13.81310070334030    2.71986221874713
H         7.44235349102263   12.36620401949668    2.76713584299100
C         6.50605821344668   14.16961080587954    3.50162227388754
C         5.11680820841407   13.86649428340982    3.51472381665929
C         4.54871729881182   12.82788615546281    2.74386650612990
H         5.18622077418664   12.18392639459922    2.15601652497240
C         3.20143760765232   12.59515614630242    2.76886003841934
H         2.78381334690881   11.78993278093431    2.18239688399329
C         2.35092953400894   13.37944551966669    3.56140761172552
H         1.28863505779647   13.18165320503106    3.56411583054894
C         2.87158647879773   14.37392753341138    4.33924098412513
H         2.23015646673210   14.97177742237267    4.97157499169381
C         4.25715105417431   14.63913189989256    4.34354865154968
C         4.80169880254619   15.65203086675403    5.16039099550354
H         4.13619725732136   16.22465191438445    5.79061037944586
C         6.14439310855717   15.89773297651882    5.15749771801791
H         6.56432982000518   16.66572788488681    5.79020889385949
C         6.98994393601176   15.16291416147725    4.31479925913790
H         8.04720720600687   15.38720806242163    4.31043843044660

