27
CSD_code = TAWVUI | q = 0 | S = 0 | Stoichiometry = C12H8I2N2O2Ru | MND = 6
Ru        8.88025531760649   -2.29811404195522    1.71735305947359
I         6.66317198803669   -1.00976076791758    0.82422470172885
I        11.19945072754468   -3.58899687611668    2.29921250530582
O         7.28316336511827   -4.08940307503232    3.52696965455229
O         9.12872815620832   -0.49002908389631    4.10548378354968
N         9.96197614158775   -1.15944900288427    0.39321589353106
N         8.77291265672396   -3.45048281454645    0.02000908891888
C        10.54364586075278    0.00503129072239    0.66946286328725
C        11.27508181709769    0.71917653346403   -0.26098684507390
C        11.41248598652155    0.20179296627547   -1.54045594936270
C        10.80935120279151   -1.00594361140171   -1.83510887089191
C        10.08435726489667   -1.67044918687563   -0.84732045538292
C         9.40693432702396   -2.95400969833981   -1.06008023806047
C         9.39946057333873   -3.63156696131283   -2.27816163942814
C         8.73206053863573   -4.83696061871113   -2.38251381467237
C         8.08601399744878   -5.33858429375304   -1.26241839268433
C         8.13323805738040   -4.61235621010357   -0.08720307472057
C         7.88571215874147   -3.41796108992173    2.82941756802666
C         9.04225125458242   -1.16707383519509    3.19188421513094
H        10.42218723914818    0.38625660614072    1.67722640032741
H        11.72529155945869    1.65776211744609    0.01709148155195
H        11.97795487629802    0.72889078329874   -2.29264580372206
H        10.90229362366297   -1.42886780348369   -2.82120783196600
H         9.90760082672897   -3.22057563948426   -3.13418672914061
H         8.71562722588627   -5.37397791383920   -3.31778603792172
H         7.55289216851930   -6.27439082714985   -1.29314729484470
H         7.63550108825496   -4.98115694542672    0.80267176249175

