27
CSD_code = TAWVOC | q = 0 | S = 0 | Stoichiometry = C12H8Br2N2O2Ru | MND = 6
Ru        0.07724271934595    1.54911661870235    0.03109375423943
Br        1.10344605354582    2.88318466986305    1.92820000215858
Br       -0.55518086593405    0.22255857506270   -2.03697617172473
C        -1.45224870859806    2.61358507670589   -0.04553820322304
O        -2.39605758455445    3.25156633080411   -0.08177366855477
C        -0.87872780780704    0.43417106994962    1.18064525295724
O        -1.47743236887418   -0.23446564416438    1.88319216204784
N         1.81876922447484    0.46618651702539    0.02286848039952
N         1.23775087778397    2.68896203032102   -1.21757841237560
C         2.03274714865767   -0.66406719461878    0.68988077889497
C         3.22669239870629   -1.35892192404353    0.62681319857441
C         4.24737826119473   -0.85919838552774   -0.16736149896341
C         4.03176762050704    0.31647649975032   -0.86088684906924
C         2.80332336215704    0.96522360245371   -0.74760212220129
C         2.47964480227103    2.21883424978770   -1.43816840000193
C         3.37360645503582    2.89823667429671   -2.26403032540304
C         2.98033720155288    4.07653464690912   -2.86952476827461
C         1.69847993244968    4.54921449151123   -2.63363180373467
C         0.86491507307141    3.82338767417730   -1.80257910438986
H         1.21841703706093   -1.03376999425219    1.30178628935512
H         3.34673414514416   -2.27057749498659    1.18848877339238
H         5.19180964454255   -1.37456495246553   -0.24462940438129
H         4.80901095274402    0.72432090458001   -1.48479641276244
H         4.36483729931257    2.51158546672187   -2.43037930312217
H         3.65975044199404    4.61512240231608   -3.51126452348832
H         1.34512556277941    5.46312880709633   -3.08185071537542
H        -0.14133887856355    4.17116928202935   -1.60089700497503

