53
CSD_code = TAWWIX | q = 0 | S = 0 | Stoichiometry = C15H32NiOP2S2 | MND = 4
Ni        1.15160947412564    3.40060139622855    3.71089569403044
S         0.31126495702808    2.33167438171877    1.97921664158327
S         2.85265506977356    2.14357617710630    3.09595827233638
P        -0.71436034009806    4.28809151064084    4.41843573491316
P         2.25140468597352    4.60347930700251    5.15825940717098
O         2.15560872257482    0.72283819446566    0.97467168258221
C        -0.31835990962830    5.67228022634702    5.59617538719576
C         1.04467391825076    5.49070831929030    6.26136434952485
C         1.84948882597015    1.52751998290751    1.80371114513162
C        -2.17394577296886    4.99859323071810    3.50515299864759
C        -1.43432761570437    2.90860358835402    5.44376301863620
C         3.60454802874379    4.08361090713878    6.31784501668109
C         3.00831901554136    5.95152105731928    4.11169894709290
C        -3.01080606810952    3.89448096589909    2.86584616210389
C        -1.64309724030186    5.93274982250922    2.41950968793131
C        -0.28482939407111    2.04172560656604    5.95882356071122
C        -2.37433467721242    3.34262668882818    6.56141627251218
C         4.06922864569717    5.19264469806998    7.25543546041044
C         3.17600725873478    2.83444336889526    7.08226461594619
C         4.39746170506734    5.54328574617777    3.62829442032803
C         2.08166873426372    6.12851512364076    2.90662264971646
H        -2.78127429545207    5.56874440068312    4.21969155822160
H        -3.72089136556743    4.32920421534444    2.16463868051272
H        -2.36623913198234    3.21096209422111    2.31544475131654
H        -3.57542480885605    3.33424354603726    3.60679203195846
H        -1.12363366053041    6.79003747074076    2.84321303691860
H        -0.95559599589994    5.38608626434063    1.77491255475171
H        -2.46194289622139    6.30811511840431    1.80897135972337
H        -1.98922561654852    2.30971920496600    4.71210949369835
H        -0.65438169290284    1.08636448185526    6.32668809334070
H         0.42733409344870    1.83793066451656    5.13413362746943
H         0.24729735974266    2.53911171911896    6.76713225443367
H        -1.82920419113398    3.83966332483662    7.36134554745570
H        -3.14473330928566    4.01614698479504    6.19130946596341
H        -2.86471862204186    2.46902571601845    6.98743853628277
H        -0.32035158310169    6.58637458430070    4.99818007948885
H        -1.11242167212511    5.76799474674375    6.33991153315292
H         1.46019992609044    6.45343628026947    6.56945535906106
H         0.93950635903654    4.86726824376198    7.15283451142966
H         4.42577580145406    3.79150823043646    5.65380056999144
H         4.95543032772517    4.86578464095080    7.79672057928960
H         4.32137708453400    6.09757365477647    6.70760195565319
H         3.30079943432672    5.43246081676170    7.98676791452491
H         2.38159412143280    3.05568553391745    7.79315422876236
H         2.82754319868135    2.07634307656900    6.38214749781825
H         4.01819568765872    2.42684861754678    7.63765491024242
H         3.06303800191348    6.88564556190019    4.68470689970434
H         5.12782898087353    5.55088078953307    4.43315614974290
H         4.35867427380800    4.54455663555875    3.19448164925211
H         4.73859155633191    6.23530954258725    2.86008170621774
H         2.54377989883915    6.75611029151636    2.14682248251157
H         1.87456399674161    5.13844215412686    2.45226522714250
H         1.13733071536352    6.58185109303297    3.19847462878084

