71
CSD_code = TAWXAS | q = 0 | S = 0 | Stoichiometry = C36H28N3OPPdS | MND = 4
C         1.32582290368112   12.74288504783816    6.50519729888743
C         1.29749602884490   12.89030728632390    5.08142209054749
H         0.41251927433503   13.35374781897601    4.66893582480912
C         2.31551051170351   12.46646608338785    4.30035230534979
H         2.26799438073831   12.58173971880108    3.22631986644775
C         3.47398878726471   11.87420112417582    4.86572572516235
C         4.53239733192431   11.46875709530737    4.03633706873352
H         4.43010768705390   11.60772880580985    2.96908750832308
C         5.67020424442235   10.91554069013334    4.55997607402406
H         6.48167197150959   10.60628715644846    3.91811687152268
C         5.77333204357930   10.76293046038476    5.94315926155013
H         6.67257739477483   10.34012007466995    6.36792184844557
C         4.74878041227559   11.14679561588096    6.77163698352089
H         4.89229930089390   11.01563266477311    7.83242142653428
C         3.55715363368766   11.70578397007647    6.27140341810004
C         2.45388218139619   12.11811610765256    7.10689867495427
C         2.51297174988840   11.87108918567109    8.50197403183074
H         3.37564357062594   11.33084424621730    8.88265977964481
C         1.18171427337281   12.12271411539667   11.63909144468085
C         2.46466897991678   11.11500905714396   13.52108017840114
C         3.54040841560290   10.61425532444700   12.79174105211088
H         3.55755148716981   10.75930592870726   11.72549690409325
C         4.56043148683419    9.94374830747340   13.43963482370465
H         5.38964936309402    9.55926980842144   12.86387118239467
C         4.52902692942303    9.76062044645440   14.81188272660366
H         5.32937017616871    9.23533214219472   15.31051419052186
C         3.46092198009671   10.25817219790554   15.54040764437856
H         3.42499448617526   10.12197931210737   16.61150378130576
C         2.43607722798239   10.92985802289216   14.90431813577560
H         1.60366265037589   11.31667638872710   15.47630791015787
C        -2.53796601854376   14.49183634642518    7.02077378040375
C        -1.75802269004955   15.25624644147502    6.15614011617994
H        -0.86184839278268   15.73038239071856    6.53542334954893
C        -2.12183773331146   15.38896091835669    4.83057465235182
H        -1.51396712206669   15.97832468874466    4.15955597656960
C        -3.26400909287066   14.75869978443404    4.35953671123181
H        -3.54738688749491   14.86013109164287    3.32225544666303
C        -4.03749354547195   13.99328794145710    5.21574519567518
H        -4.92463993175952   13.49940742374403    4.84659850213557
C        -3.67573432397715   13.85240363658713    6.54470451433581
H        -4.27565927583812   13.24803733386582    7.21114718742901
C        -3.31794608662764   13.52046023161483    9.60381520778562
C        -3.20741838864026   12.13162607509615    9.68406411229087
H        -2.32878762364810   11.64504041771316    9.24277503062249
C        -4.18294308619762   11.39350919678606   10.32549310058985
H        -4.09821038299547   10.31873078641581   10.38910950399848
C        -5.26659460859737   12.04070708645814   10.90087586548722
H        -6.02690243139646   11.46738869912441   11.41032337117852
C        -5.36971603727857   13.42017672332247   10.83673514488497
H        -6.20881963269461   13.92000493265879   11.29818629604555
C        -4.39858199723152   14.16530367605897   10.18871288789838
H        -4.47303312156331   15.24213442464013   10.15247728870240
C        -1.82291531574617   16.04742177477422    9.26577241830201
C        -2.80458389012658   16.99859338364826    9.00548069121079
H        -3.69141476211222   16.71968888208437    8.45267589242336
C        -2.62809391863958   18.30080915787667    9.43685829595667
H        -3.39115172462018   19.04024504736695    9.24202609475132
C        -1.47223097050542   18.66098145585134   10.11241225487596
H        -1.34107326612154   19.67935916686231   10.44700571545608
C        -0.47856388716570   17.72357071906107   10.34586623129308
H         0.42894584779723   18.01256602627723   10.85489558588630
C        -0.65089867775907   16.41891354677098    9.92017988391148
H         0.12954654016671   15.66587579803189   10.08104825923649
N         1.64903625273009   12.19270594568227    9.42663402783650
N         1.98722281032060   11.80423279173858   10.68386593998106
N         1.40709518581977   11.79710594481979   12.93829191993539
H         0.68342396197508   12.11397772378307   13.56994949184085
O         0.29316443273597   13.19385520922916    7.12368608777585
P        -1.93838079083696   14.31602129691989    8.72475559535814
Pd       -0.04310781365500   13.17704285701488    9.12705455168929
S        -0.30633246814127   13.01941882044811   11.39342178778853

