91
CSD_code = TAWYIB | q = 0 | S = 0 | Stoichiometry = C30H48N8P2PdS2 | MND = 4
Pd        7.83954270905952    0.65723060985557    3.76455586147064
S         9.84079099570162    1.37415305826737    2.72223779543445
S         5.86482425426209   -0.09681106037547    4.82308031833325
P         8.92248650347153   -1.10263490014576    4.75964101202684
P         6.75670380421131    2.42283112157061    2.81266397092536
N         8.55098608846330   -0.73625626111090    1.62300835607844
N         8.78786024437490   -1.60674002545395    0.65221568165958
N         9.89842897486828   -1.38688238462708    0.08605457522930
N        10.45235039274524   -0.31525307331099    0.67375003650952
N         7.06961239534603    2.08375879760126    5.89359896015186
N         6.94947178301402    2.79044187897491    7.00911325610259
N         6.06301200439173    2.31205700948550    7.77567561600285
N         5.53351573685828    1.24061775089140    7.16756340469108
C         9.60004226939121    0.08307292982710    1.65106433474887
C        11.78216668477728    0.17855064990457    0.41839243438900
H        11.77666451307874    1.23755460026343    0.70564846924084
C        12.75150544028383   -0.57369663431676    1.30530471502208
C        12.81146753819634   -1.96064854861908    1.24719959003352
H        12.16510616392542   -2.49530743043255    0.56561919779175
C        13.68130810186387   -2.65525026768426    2.06798257778160
H        13.72315913817016   -3.73348742235661    2.01467169109374
C        14.49443316390459   -1.97073795517791    2.95644414899677
H        15.17406723521678   -2.51336051553019    3.59729839726896
C        14.42935433275543   -0.58987125587671    3.02567455152479
H        15.05467508532364   -0.05233216568520    3.72304474646528
C        13.55904461964053    0.10672949658531    2.20483204020819
H        13.50106174012263    1.18375257210061    2.26681832375781
C        12.12228030785756    0.02859335764623   -1.06075300799531
H        13.13707917907106    0.37495026878697   -1.23691417061893
H        11.43576190072061    0.61511952782994   -1.66681823013877
H        12.04282914461591   -1.01325403298284   -1.35786478328897
C         6.17959011427813    1.09807943853331    5.98252399309304
C         4.59918550404269    0.30857375566213    7.74913495272625
H         3.88839425245529    0.03703126026236    6.95761013030834
C         5.37744502450440   -0.92447762408066    8.15717687383498
C         6.46241503955612   -0.80301878787630    9.01712882242773
H         6.72794792612439    0.16808896382609    9.41157316221240
C         7.21266007176591   -1.91478590539329    9.35620756482923
H         8.05537552021231   -1.80940988676971   10.02354136101739
C         6.88876401880068   -3.15585287067590    8.83440369256175
H         7.47788678813716   -4.02285303790852    9.09458835808986
C         5.81153193750203   -3.28114434542724    7.97397870194343
H         5.55925813419426   -4.24547889032260    7.55820779752281
C         5.05969457347934   -2.16931836260940    7.63437103765391
H         4.23015093482521   -2.26519391224791    6.94942506287888
C         3.86931713246548    0.95618389987514    8.91903164064131
H         3.31595235313353    1.82830178295218    8.57981963131146
H         4.57993909591051    1.27414133818321    9.67648645880837
H         3.17727791616471    0.24069974986616    9.35495576462319
C         7.98331611485633   -2.67727266960227    4.91006839382925
H         8.64540929570657   -3.45807948776445    5.29509503902289
H         7.18719733543486   -2.51105877494294    5.64235541366708
C         7.38358213573853   -3.06974305460753    3.56435294876252
H         6.72825670552819   -3.93142947600401    3.67283423418521
H         8.15804892888572   -3.31164120689087    2.83962404906053
H         6.80074321724016   -2.23648617550769    3.16323978697439
C        10.57526076246437   -1.66048601590718    4.13843750552323
H        10.37767483376197   -2.22275960346700    3.22001996292346
H        11.14730015547861   -0.77016197343016    3.86007716009719
C        11.39954812926069   -2.51221515926197    5.09366381720324
H        12.27568809926009   -2.88710338762007    4.56744308216175
H        10.83429766465084   -3.36530640869033    5.46273000521777
H        11.74484427071013   -1.92792726754490    5.94267944620021
C         9.23957847258965   -0.62668749824436    6.50779327573295
H         8.26094769557552   -0.52097673856780    6.98923376820465
H         9.78201261526779   -1.41875888964721    7.03045185009783
C         9.98844524698728    0.70297802902877    6.53445691476272
H        10.06962109668770    1.08567567985203    7.55008877870112
H         9.44481383040760    1.44318930579472    5.93002612054759
H        10.99027737037089    0.59374235723799    6.12077657023774
C         6.41901618428595    1.97103198004693    1.06214847068245
H         5.88732470185658    2.77642908901975    0.54850644957887
H         7.39389085890045    1.84206522834165    0.57923235722364
C         5.64720467488038    0.65465324599290    1.02930840295940
H         5.54479750603436    0.28807716808499    0.00986952995157
H         4.65329522415882    0.77381570281312    1.45837180461772
H         6.19121675235204   -0.10039864243488    1.61373814307074
C         7.70581214281827    3.99287271569162    2.68516880261926
H         8.49471644394517    3.83331980676499    1.94410642148397
H         7.04592894710262    4.78658399208483    2.32322137178247
C         8.32373311640935    4.35496350848506    4.03072418413649
H         8.96959448035689    5.22537009361086    3.93471683945967
H         8.91973619358016    3.51574556372166    4.39762372244448
H         7.55901038593669    4.56741275183129    4.77393290532512
C         5.11902267074855    2.97108697568629    3.47208389283954
H         4.55822968362751    2.07202745267377    3.74379504345742
H         5.33875269970241    3.51421818699199    4.39615427095338
C         4.28344851857820    3.83973336038112    2.54131494331964
H         3.41124291053966    4.20861893402249    3.07851443045130
H         3.93177456188845    3.27320360496930    1.68274103797767
H         4.84450858220117    4.70072143526587    2.18450997518358

