66
CSD_code = TAWYIZ | q = 0 | S = 0 | Stoichiometry = C18H40ClN2NbSi4 | MND = 4
Nb       15.57940254094400    9.56603107173307    9.63766640988239
Cl       17.88074663696235    9.78280848219459    9.78855584856911
Si       12.17079788847463    9.08516508355419    9.29179787213512
Si       13.75425123711976    9.34395381301022   11.91014007745367
Si       15.73342085880861    6.74300173484104    8.04055901075904
Si       16.43300888191232    9.25517288354405    6.50077127219667
N        13.66483892780126    9.31490487525921   10.14732192168278
N        15.79996228244491    8.48183295958118    7.93570578137375
C        10.81002936151835   10.26851463860060    9.93352080202172
C        11.52375722906588    7.29195907135141    9.48079943736584
C        12.47984126755488    9.43874652795155    7.43856136617737
C        12.73628726974804    7.98666579376011   12.78517636770698
C        13.25331447300488   11.04189716934231   12.63294502455863
C        15.62953329506280    9.08409868326128   11.86685021517275
C        15.50965802051094    6.25618269840021    9.87786604216310
C        14.27423768674097    6.02318094483091    7.03136070995492
C        17.34470916638909    5.89985747273785    7.44549247376715
C        16.05447049541256   11.13025080542494    6.61061233232855
C        15.62917719478557    8.57347235447695    4.90699993687906
C        18.33173590228813    9.07616435192088    6.32526601985413
C        15.32342624536243   11.75177999273029    9.80326101476137
C        14.19557615713153   12.39808902310469    9.29789746658057
C        13.96499936771851   13.74635945830810    9.51943557139749
C        14.86601453278852   14.49005766022955   10.26316362927365
C        15.99249037589120   13.87343153047023   10.77757623799540
C        16.21641673954500   12.52322985486096   10.54730341985798
H        10.48294128796380    9.98031152993003   10.92685480618776
H         9.94133784297099   10.24581597734807    9.28364944026060
H        11.15814392812334   11.29518335052301    9.98789176146782
H        10.75457430100876    7.08240943664517    8.74390092123402
H        11.08615347951766    7.13202131718591   10.46017749990917
H        12.31584425367916    6.56174122161830    9.34995998444301
H        13.51284706256049    9.21050322303825    7.18509714810487
H        12.28625977751914   10.47554950018587    7.17927650601761
H        11.83518959746751    8.83143081467137    6.81111457270123
H        12.96900121755245    7.96309796052265   13.84424081114500
H        12.93786428117205    7.00156174746362   12.37922646627516
H        11.67387189680079    8.17845044230055   12.68666617444597
H        12.19553651117540   11.23375278929828   12.49152950839232
H        13.80475955935640   11.84838340076736   12.15806024119055
H        13.45447541061096   11.08048940572650   13.69853561448011
H        15.96041651669759    8.09317622221365   12.17778312348013
H        16.22157774758218    9.82861594131619   12.40675872180749
H        15.39271373026075    5.18064982727805    9.97614402329088
H        14.63019010937026    6.72943767256976   10.31277359631689
H        16.38715779133227    6.54166442542643   10.45819683741106
H        14.50635091371443    5.99597304353610    5.97284793838107
H        13.36798520509432    6.60531691294874    7.15626613283254
H        14.06442959302801    5.00536393022506    7.34390225486936
H        17.33822813910703    4.84450532460785    7.69807787349837
H        18.22188501575883    6.34558082551788    7.90388958047432
H        17.45600153457580    5.97763343805954    6.36969788186811
H        16.63313595814632   11.60201224444632    7.40577968400199
H        14.99973233992123   11.32965691016244    6.78761484341051
H        16.32509165351155   11.61982910252077    5.67971412052952
H        15.94550352546932    7.55457583687457    4.71593566081067
H        15.93078870256958    9.17417782683371    4.05613218969751
H        14.54598224807511    8.58246858574810    4.95107925605317
H        18.72536752267726    9.83774286553571    5.65891418063195
H        18.61253303283092    8.10991875493592    5.92089282106617
H        18.82822221672722    9.19217601502177    7.28400275554837
H        13.46837111717874   11.82810552325639    8.72802714344774
H        13.07955849441953   14.21661538672950    9.11497770620073
H        14.69041118201971   15.54101295874993   10.44049906078134
H        16.70294945132664   14.44266724877518   11.36016168763978
H        17.11581181611201   12.07081212392477   10.95554320787757

