91
CSD_code = TAWYOH | q = 0 | S = 0 | Stoichiometry = C30H48N8P2PdS2 | MND = 4
Pd        0.00086013777429   -0.00022746933545    0.00033182884509
P        -0.53069951061280    2.16598925779868    0.50003412459482
S         0.77182987177927   -0.22339873939344    2.22205786753733
N        -1.21259552608060   -1.27533443615940    3.75431133005562
N        -2.40373553866580   -1.86012314818192    3.56214036362885
N        -2.61159331117048   -1.90870700229543    2.31439916908059
N        -1.61510874892361   -1.36711401835312    1.62745880411955
C        -0.72329618017831   -0.96040544334299    2.52816507167930
C        -0.64613186803713   -0.89408513045820    5.02458892341290
H         0.42078161873952   -1.15132491947389    4.98730444577159
C        -0.78542295707063    0.60750143559077    5.15896669276132
C        -2.03727215556590    1.19876349535769    5.03871354559688
H        -2.90931851086981    0.58035263713933    4.87612687379843
C        -2.16998102111246    2.57406966839233    5.11019143602221
H        -3.14707281082221    3.02399078391913    5.01265371889961
C        -1.05257976387595    3.37014668947834    5.29701385688492
H        -1.15524952137231    4.44413403393933    5.34623750686525
C         0.19708233986774    2.78595394688980    5.41436982115307
H         1.07286150398743    3.40258742382612    5.55272478463037
C         0.33081508030191    1.40992964691315    5.34355088315469
H         1.30823523092704    0.95659868407908    5.41751329621632
C        -1.33454403159808   -1.64965447327026    6.15425226806592
H        -1.20533009496161   -2.72099929919312    6.02270004207621
H        -2.39851970520094   -1.43098842192629    6.15981162883559
H        -0.90268513647101   -1.35083942658615    7.10561207094125
C         0.60589373455315    3.06396556083814    1.63262895118966
H         0.30271805786800    4.11335688741353    1.68984978590593
H         0.49267471090602    2.61983819361813    2.62646589176164
C         2.04815796654833    2.92742008110636    1.15850761701734
H         2.73258857741170    3.36771590993589    1.88069656539961
H         2.19668404927687    3.41094843280522    0.19582359708340
H         2.29717458905470    1.87010931515053    1.04063229810206
C        -2.12009200509474    2.13665099653662    1.42606113439285
H        -1.92262795918163    1.62161014949105    2.37286313528617
H        -2.44869252236791    3.15197660827505    1.66271810325888
C        -3.15800974611292    1.36743232722247    0.61317800112271
H        -4.06469130521890    1.20282217784556    1.19233773925401
H        -2.74908497170248    0.38756647439932    0.32708734852156
H        -3.41847859044129    1.90680203580407   -0.29652766469506
C        -0.81684758225235    3.38129519955969   -0.86414882811094
H         0.17714856076686    3.63720386773101   -1.24357751493486
H        -1.34865833075657    2.85590915299923   -1.66295180883950
C        -1.57402043830235    4.64694986009135   -0.48523152350413
H        -1.55766601917802    5.34193475780586   -1.32322368315321
H        -1.12172926068783    5.14409558231253    0.37020329306538
H        -2.61334893185195    4.42959844332373   -0.25189646003499
P         0.53063062015667   -2.16639456032326   -0.50028770413901
S        -0.77189996469272    0.22406947422792   -2.22141133667793
N         1.21251168666134    1.27537873585338   -3.75420730970022
N         2.40370395093337    1.86012927208459   -3.56223835536477
N         2.61175878215124    1.90873996809989   -2.31452944516627
N         1.61536947742765    1.36723888603728   -1.62740697948166
C         0.72337557472217    0.96056151571387   -2.52795035910879
C         0.64588625981038    0.89417169756354   -5.02443866340040
H        -0.42103074764359    1.15138429899281   -4.98705004491066
C         0.78524053068892   -0.60739755322911   -5.15895550297358
C         2.03714386220694   -1.19858718739002   -5.03888236279649
H         2.90916971725905   -0.58012094802122   -4.87639814241868
C         2.16993453740780   -2.57388183246304   -5.11040505140458
H         3.14705678356903   -3.02374826336125   -5.01291083293216
C         1.05256534332259   -3.37001980664406   -5.29715942066322
H         1.15530260304965   -4.44399687647728   -5.34646378029000
C        -0.19714602815092   -2.78589988374139   -5.41435151726878
H        -1.07290681654993   -3.40259061214937   -5.55256798228970
C        -0.33096201946188   -1.40988590466948   -5.34347386185408
H        -1.30841508688755   -0.95661668688385   -5.41736737697482
C         1.33419123724153    1.64983953969277   -6.15411417861631
H         1.20493883619625    2.72117119004222   -6.02248068838834
H         2.39818031815834    1.43123879926302   -6.15975983258425
H         0.90230202469835    1.35108510173395   -7.10547861847285
C        -0.60594578555367   -3.06433734276935   -1.63283894802555
H        -0.30279147475139   -4.11373380640695   -1.69001672784058
H        -0.49265613984915   -2.62014251052777   -2.62663215959443
C        -2.04813105037320   -2.92756213529939   -1.15859169491713
H        -2.73259648530632   -3.36786554975593   -1.88073447460205
H        -2.19664902130905   -3.41100429137604   -0.19586119146970
H        -2.29705169576617   -1.87020883301513   -1.04078311024745
C         2.12016934081313   -2.13678785397474   -1.42607588101322
H         1.92273199360293   -1.62180935183781   -2.37291326777842
H         2.44882758626674   -3.15210115791961   -1.66268014568339
C         3.15810892651033   -1.36752800724282   -0.61323355041967
H         4.06487249707948   -1.20302888491708   -1.19230162452350
H         2.74922231980594   -0.38761566719571   -0.32732715592008
H         3.41845341036335   -1.90677111532091    0.29658286179340
C         0.81687628893235   -3.38142168054335    0.86413137455349
H        -0.17713526695206   -3.63743340667417    1.24343565197812
H         1.34854498751202   -2.85601651815431    1.66302193651222
C         1.57425493467197   -4.64696042889873    0.48527690181341
H         1.55784938816794   -5.34197798864925    1.32323793561940
H         1.12212846388131   -5.14410023998195   -0.37024354685194
H         2.61359332598457   -4.42947938322152    0.25210983184283

