81
CSD_code = TAXFAZ | q = 0 | S = 0 | Stoichiometry = C36H42MoP2 | MND = 10
Mo       -1.42868998362587    2.61630466526300    7.68784893677825
P        -0.71515211702597    4.03128784267797    5.98083424919313
P        -2.36089814021097    4.67181959594167    8.37768667804271
C        -1.96879848252136    0.51564169078896    8.48930209897396
C        -0.70876691126406    0.36981915315243    7.82318443501163
C         0.22777240087281    1.19457004980983    8.47142295893708
C        -0.44044327126863    1.83155987929908    9.57360427838512
C        -1.79140691639469    1.37968160424425    9.60032490722425
C        -3.17134936329535   -0.34268741431667    8.23559337231217
C        -0.39610546290865   -0.63968767761072    6.76146830543619
C         1.70119501569543    1.22161382171311    8.20900373299079
C         0.26565704412416    2.51686178162037   10.70429388954936
C        -2.76407064086781    1.55030419631253   10.72840722719921
C         0.91671198363557    3.57122834576271    5.36264902483978
C         0.93538369418345    2.46168183867779    4.51659756799890
C         2.13089638279240    1.89282483768655    4.12868745756565
C         3.32932931134578    2.41832895620464    4.59179618969168
C         3.31897388437345    3.50966875039790    5.44356674509375
C         2.12054510258009    4.08239409360055    5.83355823331208
C        -1.61525678704990    4.33784909421091    4.42589446294738
C        -0.96180690659745    4.84438060205106    3.30535756772539
C        -1.67832158761353    5.13949161827648    2.16062462277327
C        -3.05022180223012    4.94251239285385    2.12928240356443
C        -3.70549256983662    4.44975496586723    3.24563629431641
C        -2.99033220184200    4.14889073757374    4.39197629446059
C        -0.56087495248099    5.77995031931978    6.54573577166247
C        -1.84863868131019    6.10446560642890    7.28715785927547
C        -4.14633916481526    5.01259503431994    8.48399223592109
C        -4.60368637826113    6.30065157021983    8.75670007142986
C        -5.95754919483072    6.54564118984540    8.88389981918609
C        -6.86855953501551    5.50890206974937    8.75201873895441
C        -6.41950086733883    4.22489696493652    8.49518228365998
C        -5.06347129662306    3.97901087221900    8.36462428241603
C        -1.86596033058942    5.26376465755407   10.02355671392028
C        -2.70177644376751    5.07152592592274   11.12014780288191
C        -2.28534901793492    5.43253435702846   12.38890933031474
C        -1.03007674390574    5.98736936765063   12.57832006380657
C        -0.18953828774217    6.17512356826213   11.49300726561362
C        -0.60235349066177    5.80923349982235   10.22535186935157
H        -0.24487561961703    3.62573988829415    8.08863045073272
H        -1.56910881386252    1.88015264056043    6.28560104149700
H        -2.92199108132128    2.66808803968927    7.17121584426102
H        -3.32785680572575   -0.49247756759670    7.16825676542486
H        -4.06883215199217    0.11226954836305    8.65037977298461
H        -3.03599087519467   -1.32146590918117    8.70366049788483
H        -1.27116809553211   -0.85808055899567    6.15240114672539
H        -0.06433231209761   -1.56908319034046    7.23223317950778
H         0.39904625945885   -0.28545851448183    6.10721807977410
H         2.19511805162606    0.40998593904837    8.75015990171170
H         2.14128130913667    2.16297554979480    8.53287745890149
H         1.91147229921277    1.10273221080864    7.14691898725074
H         1.09409129867949    3.12656648705625   10.34612886519292
H         0.66944882166397    1.76702375758710   11.39011188344663
H        -0.40832807441787    3.16132920309126   11.26589740840235
H        -2.51506651216044    2.41985297327323   11.33361865404992
H        -2.73819814158625    0.66705023790312   11.37288094060578
H        -3.78265466661983    1.67216881002655   10.36159070208153
H        -0.01131107330759    2.05874344429392    4.17668795406167
H         2.13634677986605    1.03655798274830    3.46871314634812
H         4.26741352020440    1.97354889573064    4.29306520525072
H         4.25189124789974    3.91618593977612    5.80860976263893
H         2.12898537399957    4.93131745409300    6.50255426291909
H         0.10971747793324    4.99662033746665    3.33437660293390
H        -1.16794981249967    5.52599021582794    1.28979793380940
H        -3.60705533909198    5.17418381986902    1.23276081088353
H        -4.77539790540040    4.29964381986498    3.22178028972247
H        -3.48148492841089    3.75494428272361    5.27334971029561
H         0.30146500579787    5.84504007820900    7.21423503226290
H        -0.40685189377422    6.45236709831919    5.69290355955051
H        -2.66434157707759    6.20324456094136    6.55653187566589
H        -1.76459835242418    7.03709334049909    7.85576972897392
H        -3.89577977635309    7.10882283954258    8.87980744183419
H        -6.30601760221808    7.54710729082477    9.09278467197316
H        -7.92621642897187    5.70346301298381    8.85531627336949
H        -7.12713786408994    3.41385756417611    8.39870115405959
H        -4.69747637483365    2.98332632007862    8.15610046014987
H        -3.68448039277844    4.64412934420443   10.97188227478017
H        -2.94228906986500    5.28060689931564   13.23367669501611
H        -0.70631688489713    6.26955496091797   13.56943449585759
H         0.79217141092552    6.60342552607524   11.63843114098581
H         0.06358227992473    5.93839500129380    9.38354189350819

