61
CSD_code = TAXFUV | q = -1 | S = 0 | Stoichiometry = C34H16CoN10(1-) | MND = 6
Co       10.58149141816421    0.00012990665707    3.70693897363808
N        11.90027108645842   -0.82178052502669    0.74828489143858
N        10.64107485038466    1.55713914620679    4.83938989035101
N        12.04768575029076    2.99808227892237    3.52769281556251
N        11.71674287904365    0.88688774084210    2.42824968894410
N         8.11629058778482    1.11475393849124    2.28817429070234
C        13.02885616406817    2.46170265929532    1.38769063017955
C        13.75130010200642    3.58484345805032    1.02061213494667
C        14.42449628365198    3.54817743667974   -0.18799954394819
C        14.37885440008554    2.42258028211876   -1.00887772346240
C        13.65910081761563    1.29722189967840   -0.64721221462377
C        12.98361034341567    1.32789920224296    0.56144593544843
C        12.15136743739583    0.36446376070137    1.25114768055217
C        10.01678754618676    1.69470072608978    6.03885821738218
C        10.29339757246116    3.00414340082537    6.59142629167813
C         9.90696007803929    3.63506956945211    7.76217810242999
C        10.36523639209918    4.92287282900220    7.97864902029575
C        11.18660405439654    5.56466957639142    7.05328935507025
C        11.57604193115374    4.93934430673705    5.88169917657347
C        11.12046106900558    3.65047588812287    5.65949852183088
C        11.31410054100348    2.70851927034462    4.57703687966361
C        12.22123126731958    2.14347303650411    2.54654394289773
C         9.04443898607532    0.69601769036585    2.82681718137723
H        13.78079170530558    4.45144203456260    1.66249810986909
H        14.99874520498787    4.40763637164093   -0.50625065140029
H        14.91841397469182    2.43365633884656   -1.94613926353910
H        13.61810177726365    0.42148256465284   -1.27591243558092
H         9.27087725617669    3.13035942354928    8.47247919036593
H        10.08296045928523    5.44582513275182    8.88226971163832
H        11.52370131018571    6.57148902615921    7.25916889481314
H        12.21129890050387    5.42805466008456    5.15956343739531
N         9.26284121418068    0.82191667079967    6.66570175630156
N        10.52208070383002   -1.55699777080667    2.57460878013294
N         9.11545009077747   -2.99792676132391    3.88630330681711
N         9.44638829729788   -0.88674948349982    4.98574204118720
N        13.04525050625104   -1.11793559241662    5.12553796260879
C         8.13416134253308   -2.46151270469626    6.02623221754372
C         7.41166063804707   -3.58463135329303    6.39326003646914
C         6.73841418173046   -3.54795647870363    7.60184310445952
C         6.78404011197521   -2.42236229620979    8.42272651583915
C         7.50382786558092   -1.29701468735292    8.06109577171650
C         8.17939136988576   -1.32771350727567    6.85248094602216
C         9.01172247893157   -0.36431583128652    6.16283579446581
C        11.14638590045064   -1.69458501809300    1.37515083883503
C        10.86978727268931   -3.00405211298121    0.82260090937437
C        11.25620413090108   -3.63501038537656   -0.34814124833219
C        10.79796770962229   -4.92284236801763   -0.56455184774005
C         9.97660787620130   -5.56461299982366    0.36082647509781
C         9.58713640977873   -4.93923002993638    1.53237885515627
C        10.04273144796204   -3.65036095725657    1.75454543036201
C         9.84908177508454   -2.70837828946082    2.83699402487223
C         8.94188357716435   -2.14330636277589    4.86743598696469
C        12.11757971760607   -0.69685218085077    4.58800984843507
H         7.38221454557579   -4.45123876951740    5.75138537787302
H         6.16413854173017   -4.40740720373454    7.92006714445335
H         6.24444081399949   -2.43343238649856    9.35996525666582
H         7.54483816901878   -0.42129565253188    8.68982474191753
H        11.89228455293551   -3.13032195558969   -1.05845988530672
H        11.08027007728754   -5.44583632303899   -1.46814100859266
H         9.63954098332366   -6.57145312093225    0.15499487250936
H         8.95188555114072   -5.42791711846217    2.25453486140133

