21
CSD_code = TAXKIN | q = 0 | S = 0 | Stoichiometry = C6H10Cl2N2Pt | MND = 4
Pt        4.63371548824233    8.00163944912089    4.30749867861567
Cl        4.26498307148198    9.71510842699442    5.80453623175565
Cl        4.90317442793437    6.26485740115721    2.81504301855008
N         6.54262598731995    8.29905247113211    4.38661538951023
C         7.07823101543819    9.44184075829594    3.94949542681469
H         6.38944106070465   10.17970735967799    3.55461574636997
C         8.43455198402584    9.69030444084462    4.00304467560478
H         8.81901940276193   10.62994246860773    3.63819610436582
C         9.29671803622402    8.73278017604696    4.53102362442994
C        10.77053174597138    8.95668180645695    4.59024964641077
H        11.23084485509252    8.60407126199102    3.66691263691983
H        11.21347127866950    8.40770493012716    5.41723333946566
H        10.99833719554370   10.01418525236023    4.69667198047375
C         8.72063003534303    7.54761909281452    4.98136248035006
H         9.33473581283885    6.76594131643194    5.40051612037541
C         7.35545384892162    7.36782807644449    4.89270607390016
H         6.88886582530957    6.44914770044762    5.22945016148788
N         2.59328232096732    7.67392207650171    4.22291494032570
H         2.20200131834982    7.63742653378201    5.16519134289123
H         2.42229834591366    6.79169784343274    3.73528325675426
H         2.13698694294598    8.43434115733101    3.71693912462826

