68
CSD_code = TAXLAG | q = 0 | S = 0 | Stoichiometry = C23H33BClMoN6O2P | MND = 6
Mo        6.25915387232032    5.05169583097209    7.46812078143887
O         6.81060901760287    6.13587056514573    6.37353984270345
N         7.29179669834704    3.43022499410770    6.73964557934220
N         6.71008724537387    2.22630010635905    6.56753379104895
B         5.25181824624780    2.02623044860912    6.98721601518396
N         5.14736405957198    2.39185584648401    8.47593060896276
N         5.43777517581170    3.63896366762889    8.91124977544467
C         5.21547037813367    3.65444616829677   10.23092853611763
C         4.78212797712996    2.39419315470158   10.64264311528067
C         5.40588839410680    4.83629901353084   11.10993307084698
N         4.40159418049700    3.03987585282749    6.21973582127396
C         3.41645712465039    2.85747130607251    5.31298022767752
C         3.05540360932594    4.10445392337170    4.84115001360414
C         3.86524484262252    5.01750671685921    5.52346711928318
C         3.92976202952762    6.49513508948638    5.39533206825255
C         2.86411549744977    1.52536046705875    4.95257409171531
C         7.57310321977939    1.38385870041022    5.95906700667476
C         8.73731514038546    2.08683589205776    5.71859675651304
C         8.52220424186229    3.37113830039463    6.22732428231192
C         7.26061989858378   -0.03674538027924    5.65215481696887
O         4.88011137916030    6.55007483357411    8.57763787301657
P         5.29868072229586    7.95774869377127    8.84983670738352
C         3.80611831592324    8.92366255875443    9.22631062413178
C         3.87556971112676   10.28592628082301    9.48374778378071
C         6.11480999894107    8.76303222052036    7.43129200990234
Cl        7.99009516893422    5.44094916000096    9.15594135478696
N         4.66480916179226    4.35229553751023    6.35477488624661
C         9.43511067885987    4.54158443107439    6.22001138802898
C         2.58055347638479    8.27499519000280    9.25125563177703
C         2.72154909581157   10.99294186384161    9.76730084604714
C         4.75332507027652    1.61744377462656    9.49927521346607
C         1.49759371150129   10.34231634192222    9.79339136808607
C         4.37207306614482    0.18721652180850    9.36595097761190
C         1.42624570550221    8.98339317590271    9.53462322685306
C         6.42651235067597    8.16292341337442   10.27301865448736
H         4.52977923040629    2.09361833313206   11.63931481056361
H         5.18487143702962    4.56171361031474   12.13903742685684
H         6.43685630690673    5.18471115922892   11.03992580701813
H         4.74364198079739    5.64650577329443   10.80476697324506
H         2.30688165384406    4.32700115475493    4.10782551614223
H         4.95557203010563    6.78312739746897    5.15719944021812
H         3.65742606078965    6.96820520513374    6.34000694514556
H         3.26030879458185    6.83879675796227    4.61108692278451
H         2.06989706813373    1.64830791103501    4.22138162226497
H         2.46117390496350    1.02333617785681    5.83069893725039
H         3.63926845410313    0.88984819923588    4.52726721600378
H         9.62757226138669    1.72244741264619    5.24757963020169
H         4.83126789130807   10.78893801861765    9.45929202563152
H         6.71191016562813    9.61329072580332    7.74402369662659
H         6.75374894899666    7.99453861843153    6.97842316135930
H         5.36838673687747    9.08015881246905    6.70480693614271
H         2.55039460022843    7.21422930226894    9.04519086123860
H         2.77335287225862   12.05291967284238    9.96807515437793
H         0.59823833042428   10.89742147003678   10.01525827524155
H         4.11099866570557   -0.20917434114430   10.34358164275691
H         5.19759328955057   -0.39313797180506    8.95847098184660
H         3.51857473782680    0.07525832413064    8.69971863506689
H         0.47202785615720    8.47793250688576    9.55396058907213
H         6.71772877576715    9.20359608477287   10.37901608428981
H         7.30617006178093    7.53874062929939   10.09659594124049
H         5.92771407256402    7.83107624132066   11.18142260672422
H         4.89300038057670    0.92176475139286    6.78820593442092
H        10.26604302214797    4.36908605429199    5.54104521766325
H         9.82340967676870    4.72743591858222    7.22172500148191
H         8.87846182120574    5.42893442867368    5.90941927085961
H         8.11901276642422   -0.50002490372524    5.17375707438444
H         7.02544243898151   -0.58602502301779    6.56227812275524
H         6.40350524309057   -0.10745307378525    4.98434967286532

