42
CSD_code = TAXNEL | q = 0 | S = 0 | Stoichiometry = C16H20CrO4Si | MND = 9
Cr        3.24510033548626    7.16756837457886   -4.80562411851456
C         1.60995397074984    6.76767052860865   -3.24732597222313
C         1.42444241148342    8.06699603688963   -3.76836175161000
C         1.28760182306935    8.20325820830166   -5.17046717678185
C         1.31478199214668    7.11103498310884   -6.03421732742811
C         1.54320262874279    5.82886632220363   -5.50558531749845
C         1.66804434775874    5.66017876139498   -4.12827570931566
C         1.65567826767730    6.53609414405956   -1.79007444047845
C         1.03393896781200    5.30708486415137   -1.16080608758217
C         2.51574769161848    5.44666989647375   -1.16700916600289
O         3.12509626234209    5.69473761171631    0.05172008405285
C         4.42341489578370    6.24154286526662   -0.06357677370452
Si        1.39015878337752    9.65086356146517   -2.70835286876127
C         1.36101692606096   11.16379931388478   -3.86864808285473
C        -0.20259485684755    9.67780717219666   -1.64911736252049
C         2.98580408280468    9.74943827348118   -1.66436408141543
C         4.63918517600256    6.76983316505472   -3.71188225873043
O         5.59305726867807    6.54743826090196   -3.09116718203215
C         4.23650571570140    8.67300923451205   -5.04031567175138
O         4.92758242450473    9.59087260022119   -5.18097527842105
C         4.44711793501983    6.51912037403793   -6.00813829263921
O         5.27496278500397    6.14484188858171   -6.72394537918849
H         1.06873670152066    9.18166949065059   -5.57918860458687
H         1.12310498803529    7.23836598927220   -7.09274990272041
H         1.52371737625437    4.96279567760296   -6.15759871969268
H         1.75106170084491    4.65717729096980   -3.72808170152607
H         1.58259169161481    7.43183231408189   -1.19043032812350
H         0.53734615616788    5.43943304421008   -0.21243489273968
H         0.57424547108875    4.56713595476012   -1.79788338447635
H         3.11037640553556    4.83100284108238   -1.84157740233660
H         4.79663853662567    6.35254894486476    0.95207805009115
H         4.40395949442359    7.21576989333217   -0.56087903630474
H         5.08328271225347    5.57546773454497   -0.62792981978425
H         2.21914119106044   11.16935494297454   -4.53430201194550
H         1.39974523126929   12.07805072179147   -3.28473729221195
H         0.46032433160006   11.21117515592550   -4.47371699553941
H        -0.24870882140319    8.86542922909887   -0.93115087894704
H        -1.09307981411227    9.61521307936808   -2.26820497254537
H        -0.25860364377573   10.60783448584352   -1.09240072794178
H         3.81071955878055    9.25026732867978   -2.16894132828335
H         2.87260395382062    9.30352727003878   -0.68104710944922
H         3.27519694341809   10.78442216981710   -1.51181272553202

