25
CSD_code = TAXTIW | q = 0 | S = 0 | Stoichiometry = C8H10Cl2N2O2Pt | MND = 4
Pt        0.52524975451763    2.38071970249592    0.34989179708302
Cl       -1.24755952452053    3.41310434327322   -0.52386215328393
Cl        0.59855205212954    0.95941159427898   -1.36687209651852
O         0.74400292357341    3.23444506020896    3.15139748746670
O         3.08002399883570    2.15522365436232    1.78581401857386
N         0.43553743873832    3.65896361360834    1.89638381921585
N         2.13006375156134    1.44742647426297    1.11717831979252
C         0.48716588756206    4.23180090993438    4.01757060229334
C         0.01496228228317    5.31078384874086    3.32264824148737
C         0.00134513909310    4.89094735493930    1.97890231145118
C         0.73690099098456    3.99948922916712    5.45861993517593
C         4.09548934844472    1.32758259870677    2.09317302439737
C         3.80263963457388    0.07558526916441    1.62722386924701
C         2.54244051067942    0.20941926738811    1.01421625004378
C         5.26476483100742    1.87909654546423    2.81544254529273
H        -0.28215711831963    6.26209316367253    3.70875288680171
H        -0.31404668803497    5.41864864241589    1.09992579773985
H         0.11735415518966    3.17850439891101    5.81656228175315
H         1.77832702157914    3.72777545696006    5.62320060889069
H         0.50449332119879    4.89693434757270    6.02286492510457
H         4.39577761904303   -0.81006137835731    1.70584503596584
H         1.94769293829328   -0.52336919101864    0.50441100160297
H         5.92503905682148    1.07331591618925    3.11999476267002
H         5.81288340750326    2.56401018509719    2.16934267529774
H         4.93895726726126    2.43594899256347    3.69187205245432

