41
CSD_code = TAXZOI | q = 0 | S = 0 | Stoichiometry = C12H22BFeNO3Si | MND = 8
Fe        2.50856956763861    6.26355432472016   19.13746078014332
Si        3.42684132405769    5.28812963517012   20.93552005845182
O         0.13186205718711    6.89829035335509   20.66978377914745
C         1.95627036077610    6.80715175811975   15.91168527477602
N         2.70273922537677    7.18382146411978   17.11129872714150
C         1.09524793459550    6.67134748198664   20.08269148341397
C         4.41481566766316    7.20685298398289   18.64799205516028
H         5.36911724502138    6.96550828268507   19.08660730040220
C         4.13976637020647    6.66971914187382   22.06752599395708
H         4.48296522843849    6.25582403996459   23.00957390463893
H         3.38027895162163    7.41102289342905   22.28837814337145
H         4.97710158209169    7.17956778456860   21.60724998409162
O         1.41759320334486    3.62597590434357   18.67095760127234
C         3.54213225008651    8.23826045390408   19.04685621155921
H         3.79829604474452    8.90378158321199   19.85817963044104
B         2.47537928350023    8.35739423213689   17.95016220579014
C         3.83821615033878    6.50355543545260   17.57664595178977
H         4.34978266647261    5.78624111131273   16.95750720773617
C         2.29393216960896    4.23129452303285   22.07640535102343
H         1.85807187622136    3.39945746063537   21.53435799669208
H         1.47857224473898    4.82427826122038   22.47580362909649
H         2.84893611684060    3.82368058689184   22.91556546748806
C         2.39475844789118    5.44606477975773   15.37021956146008
H         3.40922960182371    5.47657987313998   14.97871975060313
H         1.73430236740429    5.15564684782116   14.55714814009068
H         2.33131393768802    4.68862812129817   16.14829938255561
C         2.18109878509326    7.89160835414668   14.85106208037955
H         1.84147133622787    8.85075915392573   15.23125679591955
H         1.62922317091695    7.65649217852415   13.94494208749498
H         3.23873254679621    7.96793863927747   14.60596957311193
C         1.89878378195640    4.65982089813483   18.84121231933624
C         4.86532685697988    4.12422084096463   20.39867530533092
H         5.39361432619521    3.73513531175319   21.26310622140725
H         5.58885621679260    4.62996277386854   19.76986767264365
H         4.48075617403958    3.27865112953249   19.83901332323511
C         0.47340007692957    6.73297295901331   16.28851184298661
H         0.33571228483176    5.99089198838034   17.07512793100654
H        -0.12900168925592    6.45708294778661   15.42706241611878
H         0.13593947470779    7.69514274645137   16.65995349466752
O         1.48683127793921    9.26618641257437   17.68526303081601
H         1.41396350447012    9.96730434753046   18.32868033325149

