50
CSD_code = TAYBEA | q = 0 | S = 0 | Stoichiometry = C22H21CrNO5 | MND = 9
Cr        3.25596527809033   -1.06944765311674   -0.04305578969317
O         3.19639042437507    4.71712819657125    2.54425561128554
O         2.31982772704825    4.16193224487082   -4.16946419648486
O         0.45004738283026   -1.21403141470953   -1.01991813055582
O         3.65000304593465   -0.11271701097063   -2.83343753771592
O         3.22359959755291   -3.65027775769309   -1.52158821189081
N         2.51667410983839    2.89680071761754    1.22022894540020
C         2.80170231253702    3.59837616856981    2.35140028777354
C         2.42290054138933    2.41370545308589    3.25138211646183
C         2.15029575368669    1.66050475211444    1.90319385917983
C         2.48138916381484    3.23165272589541   -0.13398931709058
C         1.92753066949332    2.35491015540860   -1.06452130126563
C         1.89485263576683    2.69839172703460   -2.39763690198986
C         2.40823494933204    3.92153368440783   -2.83313974926030
C         2.95675322657394    4.79533039739689   -1.89938086091770
C         2.99338601548704    4.45126117100175   -0.56033998290958
C         2.82429842993037    5.37510066002944   -4.67052440186527
C         1.17823150679452    2.69191304627372    4.08134676540363
C         3.56778893518154    1.89405258391379    4.10697461440094
C         3.04197868440803    0.48226748938341    1.63214404196001
C         2.69607725642059   -0.80508201760805    2.13236337577965
C         3.63124823396153   -1.84279515033680    2.04128089693474
C         4.88271781298554   -1.64270920109501    1.42708269041070
C         5.20826828807427   -0.39286499230703    0.90711510956118
C         4.28049945658806    0.66275328100972    1.00693001939428
C         1.39611553666488   -1.03298643273662    2.84869276964411
C         1.53076812612867   -1.13329930300516   -0.61235322328028
C         3.52597306655084   -0.44467891508857   -1.73569256525467
C         3.26820796695701   -2.66632729606680   -0.91879323732267
H         1.09584833631244    1.40234935467099    1.75808296226965
H         1.52212745677733    1.40511555586017   -0.75084759392862
H         1.47513139238052    2.02472820309929   -3.12608682516195
H         3.36076307903625    5.74944439137060   -2.19807036758069
H         3.41338939092319    5.13283294045390    0.16205445207367
H         2.64870560650968    5.34536046351873   -5.74466764923081
H         3.89868357391831    5.47301482898223   -4.48350883962448
H         2.30076974329321    6.23682569230206   -4.24313917693000
H         0.85818192000576    1.79987397322180    4.61741345701491
H         0.36067541324341    3.03423652145000    3.45030593668301
H         1.39569530610780    3.47216266375476    4.80733666337444
H         3.30014449167821    0.95622813788454    4.59220719924257
H         3.79845630885474    2.62810582357594    4.87554119642997
H         4.46528117161140    1.73658710011166    3.51189644715259
H         3.41404474730482   -2.79841305917718    2.50411063537188
H         5.61303765640555   -2.44277036385475    1.42756788274217
H         6.19106782138171   -0.20623775133684    0.49258465959272
H         4.57117709790253    1.65239174305842    0.67400204368722
H         0.55028393590570   -0.76742215814646    2.21531027150006
H         1.33946725390064   -0.43050894697249    3.75516334570618
H         1.29214216214374   -2.08000242367664    3.12508760352423

