76
CSD_code = TAYBAX | q = 0 | S = 0 | Stoichiometry = C27H39BFeN2O5Si | MND = 8
Fe        4.01514565703596    0.51554671031763    3.04627978056289
Si        4.40786959444142   -1.43332673375146    4.08637695328035
O         6.01240429073408   -0.25540389765572    1.10558564759515
O         2.32591069216602   -1.03799824308630    1.29006669260323
O         5.50930259991000    3.70753711036687    2.81314266207009
O         5.73992696155544    6.80924051643005    1.97214042217198
O         6.02379376271687    6.51283845100677    4.16767172364692
N         3.28478359379146    2.61317667742032    2.95302777370707
N         8.63004116185526    0.84930133758393    2.46465798800927
B         4.65016994029159    2.83858111307902    3.42689529433013
C         2.62099483859616    1.78292219010225    3.86887019667547
H         1.54566168099179    1.72163860868236    3.88852288738421
C         3.47212006198363    1.47839879070068    4.94663549988617
H         3.15306477721637    0.96499243526253    5.83877309917443
C         4.76854825121818    1.94476749052360    4.66469636678586
H         5.58045482165993    1.80950703562960    5.36152354359880
C         2.64704234010891    3.24897793253275    1.80094348784244
C         2.57065351976535    4.75798189349886    2.06301348993148
H         2.02321385058655    4.95412086236285    2.98365576929431
H         2.06385170901843    5.25952882243146    1.24275762917279
H         3.57303787345628    5.16731639245430    2.15149545659308
C         1.24667083825099    2.68985269814795    1.54524768984452
H         1.28053965580477    1.60619449402925    1.45540807775654
H         0.86323839675207    3.09756262255531    0.61333837023293
H         0.55378228640001    2.96387793863110    2.33783662068132
C         3.52303090566771    2.97201880676358    0.57602152761816
H         4.52018192509620    3.36552245299225    0.74557954191049
H         3.10529933593320    3.44170258075006   -0.31053681094751
H         3.59385858751240    1.89578486365181    0.41474062837981
C         5.31108671101168    0.10097331674697    1.94989812949491
C         2.95446423742374   -0.41559822504858    2.02991707232105
C         2.85205105346835   -2.00321039546002    5.07109296743618
H         3.00280380650094   -2.99094929317730    5.49384828511651
H         1.98192142400756   -2.04947367086215    4.42533573054701
H         2.61909442138681   -1.33089589626980    5.88796307270308
C         4.90224087170983   -2.95595426487100    3.01531773275929
H         5.04868736530613   -3.83976688249858    3.62819316934436
H         5.82333705692274   -2.77441040091156    2.47303955315411
H         4.13426243490569   -3.18525703582847    2.28509154976188
C         5.86132206856714   -1.16869138770432    5.31578824722103
H         5.54965008613476   -0.58987463020370    6.17646817174025
H         6.68170060506077   -0.63892190106157    4.84414455307047
H         6.24190978391272   -2.11737191695116    5.67893612012212
C         6.78868728217028    3.91965171968518    3.38952923529441
H         6.65913693845748    4.13427916781578    4.45990560846740
C         7.64938643268776    2.70407644863995    3.26861784512603
C         8.35127779437082    2.06900834159654    4.33740641752510
C         8.52669739056215    2.35508788615800    5.69149605013678
H         8.08023660805444    3.23599919802044    6.12915568726348
C         9.27692847914107    1.49228452511091    6.45720638569254
H         9.42010068636408    1.69518708505516    7.50848469803142
C         9.86422975358296    0.35081588101365    5.90369420425488
H        10.44654028933935   -0.30113220698909    6.53771853698286
C         9.71400334280749    0.04428161340625    4.56916876943876
H        10.16930956418098   -0.83790173661055    4.14493859534758
C         8.95198972299882    0.90799731708529    3.79021331938346
C         7.84610069547319    1.92251639058972    2.16333395049001
H         7.46292989413597    2.05241582630734    1.17025567549255
C         9.04222525164090   -0.17976641643705    1.55440758806370
H         8.74300389191877   -1.16036072335101    1.93067962926079
H        10.12823524030514   -0.16960616786726    1.42547446286044
H         8.56680908982795   -0.01858796219016    0.58982735538666
C         7.38649294936142    5.19719505826965    2.73996022439461
C         8.64280756888538    5.62343863279390    3.50115514166256
H         9.08141983405385    6.50388816119494    3.03681026681270
H         9.37227198472758    4.81676911243893    3.48321674348546
H         8.40526346382485    5.85473170134961    4.53605709621588
C         7.69140959694284    4.99830202070283    1.25847120178609
H         6.82051562418344    4.59006645647155    0.75366314049484
H         8.53316154920241    4.32299180464660    1.13570464030417
H         7.93131846560860    5.95491999474193    0.80068102187208
C         6.30177767870650    6.25843811739712    2.88107888075431
C         4.99461546108032    7.46211947019911    4.40315856166918
H         5.23795112634803    8.41198506575671    3.92252910937727
H         4.93207718207107    7.58324960825855    5.48154154111075
H         4.04596333014751    7.09929923943260    4.00205605097483

