79
CSD_code = TAYDOP | q = 0 | S = 0 | Stoichiometry = C24H50N2NiSi2 | MND = 4
C         2.27273166462551    0.90837158064539    2.87407335264226
H         3.31648855759924    0.62417722611468    2.73809293725338
H         1.84637869925192    1.11336853142916    1.89507573780541
H         1.75179953452019    0.05801553208448    3.30574002816720
C         2.18802380699943    2.12178069956902    3.75829132873339
C         2.34140668251237    3.43618710369498    3.11051231021181
C         3.07643489625763    3.46022639551844    1.79615670333524
H         3.49000111230566    4.44183667764253    1.59343954955889
H         2.41061524198477    3.18949063024783    0.97596166976357
H         3.89719016639656    2.74610538154561    1.81693194128697
C         1.64742362201499    0.90702122826929    5.74710182051704
H         1.02969989372459    0.22711424732216    5.13807890026845
C         0.84812776945770    1.28374089360888    6.99680109840734
H        -0.09399137786710    1.74477864184404    6.69295574444605
H         1.42126455898339    2.02663399176629    7.56148201962277
C         0.56212937037206    0.06485924792040    7.86671165077956
H        -0.08289858521760   -0.62978585289192    7.32090811569362
H         0.02700527555716    0.37638096515574    8.76586277187376
C         1.85609914692748   -0.64633377894296    8.24789800995894
H         1.63418048533405   -1.52686851381310    8.85435927932971
H         2.47793259985490    0.02541976776070    8.84330750524360
C         2.61668099401492   -1.05724425806252    6.99137355019525
H         2.01099201905680   -1.76056809127425    6.41335906677513
H         3.54585947215756   -1.56253883887809    7.26309562708629
C         2.93443466895282    0.16687043590690    6.14002228550538
H         3.57298842620306    0.84645226035383    6.70694555251744
H         3.47954393152123   -0.12979688152010    5.24134820357685
C         1.62273302007908    5.75731659549219    3.20378610677426
H         0.92485835968857    6.23438342674380    3.90483744010564
C         0.95287374183544    5.82747425652159    1.82492110690697
H         1.61562389160090    5.46733276749134    1.03899649540060
H         0.05568155100921    5.20359290127770    1.82647005558373
C         0.58591260003191    7.27953132500643    1.52857548731443
H         0.10513347488462    7.34586797360254    0.54993907486287
H        -0.12682738605110    7.63564416223215    2.27591115255567
C         1.83196633239892    8.16157585063789    1.55563251222218
H         2.51479195140133    7.84614557975424    0.76251837575299
H         1.55452799991461    9.19955638270751    1.36124841105611
C         2.54063195869146    8.05665277703145    2.90428049302097
H         1.88480670399793    8.44095954002835    3.68885858063963
H         3.44573214746822    8.66737000961327    2.89663346003975
C         2.90132782861540    6.60619745997455    3.20917140423796
H         3.37736395997367    6.52165664795696    4.18691545532586
H         3.61276998966252    6.25218937903415    2.46155446015897
C         1.46860922818502    5.66837458106172    6.64476481779828
H         1.86232223070371    5.99497090247055    7.60594342663718
H         1.69209653857238    6.45385489301172    5.91842850555883
C         3.38168795208282    3.96808593903323    7.09661043234761
H         3.09632858370245    4.11749467913596    8.14278260393161
H         3.64412569160803    2.90642767314975    6.98333999392061
C        -0.82699870611532    4.47617671214491    8.44409312248429
H        -1.86874509846838    4.17225996177487    8.47661007816585
H        -0.66320826588417    5.17162140911572    9.26050890124885
H        -0.21784058153171    3.59953149795681    8.63375908627590
C        -1.10620338699202    4.22753424127274    5.34089622393872
H        -1.96765294659783    3.65139265858684    5.66786260754438
H        -0.35892726310037    3.52922686273000    4.96548819467604
H        -1.41962157256153    4.84503668982985    4.50441448919688
C        -1.37857410480341    6.95557488536171    6.72797983351804
H        -2.44244158169000    6.77778885903029    6.84657108910663
H        -1.23786046742747    7.48628747145277    5.79145755136283
H        -1.06529433703132    7.61685047724579    7.52875005197482
C         4.79314824176967    6.86207587640291    6.91263987819337
H         5.73796647674490    7.35105804616371    6.69303005366825
H         4.52734195053983    7.11042142207337    7.93507968044209
H         4.03839711927235    7.29596434284551    6.26687655997435
C         5.53137434261742    4.55300349797043    4.91304635801862
H         6.07895351673678    5.37392731920974    4.46089972841494
H         4.68125788216759    4.32640193275930    4.27845913277140
H         6.18225730442240    3.68406310090068    4.91078877584805
C         6.34797815900008    4.42371716618975    7.88332274946559
H         7.27891310785693    4.92780238856234    7.64352999015528
H         6.53239806711612    3.35526134983483    7.82670814790381
H         6.10683517646193    4.65878538603732    8.91504995012625
N         1.95299878514324    2.11871657281364    5.02013778187494
N         1.78332887753887    4.41629172882686    3.72567280975451
Ni        1.85810072403902    4.00079231733548    5.84552928531519
Si       -0.40361955539661    5.30434105979315    6.76941171175591
Si        4.94281715262904    4.96624383978504    6.69091956412044

