87
CSD_code = TAYKUA | q = 1 | S = 0 | Stoichiometry = C28H47F4N3O2P2Rh(1+) | MND = 6
Rh        2.66057145832121    6.30357355903235    6.47199787614582
P         0.78645908120729    7.62222320117084    5.94645364165564
P         4.68055814463541    5.21307004802843    7.11866349301693
F         2.87279082180702    8.55818846867725    4.20018500739385
F         3.81952617948450    8.41959600585988    1.68045855484137
F         4.42147921393885    3.96619079245010    1.93298992157797
F         3.55086079223898    3.87170745889238    4.48952840384871
O         3.71011948733681    7.97583931696468    6.68627635475662
O         5.02420979131592    7.74466187890480    6.16372910491038
N         1.07788846477069    3.67187155421237    6.19130898662862
N         4.12705362054362    6.19610036670161    1.82797898377320
N         2.15842596017663    6.51659543782176    8.58360614953537
C        -0.63820749124089    7.13108099549806    7.03213023746804
H        -0.78820465117640    6.05451358857422    6.91308172478201
H        -0.31297413069232    7.29963360677748    8.06325880245196
C        -1.94687827730376    7.87421702928611    6.79419225858937
H        -2.38104862583543    7.62549429127528    5.82997244223565
H        -1.80420843662089    8.95030382930988    6.84817707967290
H        -2.66610978180794    7.59518134007725    7.56200350712388
C         1.00150106007937    9.41679561300552    6.33263999765227
H         0.58276174321918    9.57289788331889    7.33175523455770
H         2.08137469516657    9.57501941597555    6.38751095169212
C         0.40246182207185   10.41071253294099    5.34411169201460
H        -0.67520637955697   10.30293650416542    5.25100151477888
H         0.85396409597993   10.30296513819554    4.36269338515978
H         0.60747356166474   11.41991257490260    5.69497269650181
C         0.02759517700334    7.54625537178341    4.26634472323377
H        -0.87325942861242    8.16257203418395    4.29162746715539
H         0.70894255342269    7.99423942698288    3.54459687305860
C        -0.31414263903669    6.12512191494659    3.84022902492758
H        -1.06375889162758    5.69024908034178    4.49688709441242
H         0.57299110801498    5.49348989763453    3.85759656926054
H        -0.71194130673131    6.12682148714050    2.82778153116319
C         5.40935005495044    5.73211033358330    8.74104267135743
H         4.66074831011417    5.44815736448929    9.49014361958764
H         6.28648957452173    5.09825447618515    8.88975146825520
C         5.80405771869717    7.18605542450351    8.94618588545796
H         4.96813470107745    7.84971284226107    8.75173974336847
H         6.62195571928564    7.46654254489196    8.28993555723419
H         6.12713308776657    7.32994723530209    9.97635767919990
C         6.07136433690523    5.03297071406820    5.90543292329952
H         5.91969663830370    4.06862777826769    5.41302828912216
H         5.94905100341988    5.81756693063211    5.15783782562983
C         7.48380372119031    5.11364826416902    6.47255921540989
H         7.67645162154314    4.34659002158707    7.21760666399633
H         7.67120823010349    6.08783929250131    6.91403192348550
H         8.19405611299712    4.97311997570983    5.65994537509431
C         4.31895400982483    3.44279352550493    7.55494054082614
H         3.55273672053334    3.45686155077674    8.33589935327384
H         3.87764348294092    2.99386508300914    6.66459963944443
C         5.48651312018734    2.57579700187411    8.01068866570443
H         5.92412262023218    2.93335927192607    8.93866809084878
H         6.25979942037189    2.52389136922482    7.25010050509984
H         5.13019954549223    1.56196604049336    8.18532456307676
C         1.65959136703857    4.67178433810050    6.29742680200730
C         0.42795361431048    2.42696319510602    6.04146131143678
C        -0.52371588482728    2.52592947943739    4.84757211910734
H         0.02281504578525    2.78173833157652    3.94330410194367
H        -1.28753616973511    3.28000903816702    5.02127447763874
H        -1.01364031686871    1.56870604803828    4.69581917455491
C         1.49799103479454    1.36110684845813    5.79360991906398
H         2.14550871826376    1.25423770352202    6.66059192430735
H         2.10672375455227    1.62488606561251    4.93242451844633
H         1.01846280058420    0.40591578627712    5.60105155909356
C        -0.34223986587525    2.14226822599594    7.33385425063828
H        -1.07436833063058    2.92328612719102    7.52903160899325
H         0.33675020932743    2.07704598884291    8.18160495211415
H        -0.86550117599403    1.19525465551542    7.24098537579578
C         5.64322853540427    8.97758128261952    5.90327071297976
H         5.77518425940026    9.56230426310553    6.81972168731882
H         5.06917581386071    9.56524677235156    5.18099092745687
H         6.61569953651254    8.72363186238115    5.48239229724556
C         3.19588011189606    6.22337848299021    4.51182557636431
C         3.27829954561398    7.36728016565435    3.71677827117583
C         3.74870223175153    7.31054448805386    2.40799913866119
C         4.04734033860264    5.09215544878142    2.53131521220874
C         3.59795084564228    5.06515867554168    3.84664957915815
C         1.70007988424246    5.51900865307088    9.34203504881029
H         1.53130870028173    4.56927187926482    8.85189940283809
C         1.43208498200993    5.66058190979804   10.69183986779121
H         1.06607420482479    4.81941330976490   11.25849551285775
C         1.64324739711548    6.89183806493134   11.29393988097900
H         1.44913525244184    7.03405102701120   12.34548825393317
C         2.10532357641278    7.93254566734626   10.50536455122212
H         2.27981120878820    8.91174744508496   10.92121821733363
C         2.34601971548161    7.70351817002524    9.16092000941551
H         2.71512051641045    8.48940191439884    8.51488227221486

