140
CSD_code = TAYMIS | q = 1 | S = 0 | Stoichiometry = C70H62ClNO2OsP3(1+) | MND = 7
Os        7.68358231033998   15.15457388638069   -3.21507767800825
P         8.37963038090313   17.28789506272635   -4.02576162739361
P         6.80356680659312   13.19773455068280   -2.20566807322904
Cl        5.86879002769019   16.24684015742731   -2.29833748900138
P         8.59936493186078   13.31758863559786   -7.51256071981614
C         8.86421506807296   15.31998135204424   -1.54668793322962
H         8.41483493047491   15.58167100742530   -0.59107284889626
C         7.40542682237044   14.29743599241563   -5.17418204713921
C         9.79547304580818   14.13419732740363   -5.16156993712819
H        10.76667705483634   13.90904883556548   -5.58223670809354
N         5.19203912942918   14.70773289684293   -6.22444829993236
C         4.06341615656183   13.42720412415642   -2.70203269741019
H         4.19548735519311   14.47185793314021   -2.45927464903954
C        10.20889048692095   15.19506227593918   -1.65329366467350
C         7.01521912168329   18.43777788173617   -4.40602154294363
C         5.35382949963447   13.67270530836078    0.20989919440393
H         4.44802917893499   13.75201149064094   -0.37095026009924
C         8.62524311083557   13.99208413438421   -5.86264809360436
C         9.32487154761232   18.21470151339765   -2.76795879478575
C         6.21098088160795   14.28279665062360   -5.71480914118736
C         3.97904185497782   14.18815083671001   -6.75023332642685
H         3.98166202940164   14.46527716720206   -7.81568297036355
C         7.48193779898915   11.89627533980944   -7.55420300426307
C         9.61880455916285   14.55676002300474   -3.81719437242491
C         2.51748535121413   12.21460457816574   -7.23512702875648
H         2.41825240245039   11.13426488526802   -7.11464140862672
H         2.52007153668330   12.43258428609163   -8.30608343782682
C         6.56676585817700   13.39282858628374   -0.40391797212136
C         8.72421840933508   18.33006920905155   -1.51380985626841
H         7.73452474579299   17.92301485461809   -1.35406071703370
C         8.09933804546308   14.51203772578399   -8.77637772753706
C         8.87794602875775   17.96081674211985   -6.71451995872515
H         7.87200605648049   18.35482913095210   -6.73375964655251
C        12.48081750357889   13.33669812784990   -8.63984694960782
H        13.21190716579511   14.07822403325050   -8.92320664559785
C         5.29585162744502   13.84410460397709    1.58356202603791
H         4.34754213332292   14.06110347105943    2.05224934126753
O        10.58137452821159   15.92224209334237    0.53982683814521
C        10.64515403850813   14.70994057760204   -2.92923317211890
H        11.68430746082528   14.48068233022221   -3.11795440075988
C        10.63970419118306   19.50510387880067   -0.68605296280416
H        11.15823327830667   19.99677374863826    0.12333920266158
C        10.25391499784455   12.76009336566166   -7.96258655327157
C         6.55184050526310    9.99296303626036   -6.42865842739928
H         6.44675787390683    9.39171223402112   -5.53876117965201
C         1.33975831684117   12.92460252526412   -6.57416739134982
H         0.40706402537244   12.60662882522272   -7.04247539601293
H         1.29988289763154   12.64774176201905   -5.51963397994849
C         5.17200978302084   12.58385165459732   -2.76689679105757
C         4.99022472545926   11.26844774563331   -3.18776784097290
H         5.83981863501281   10.61148228651794   -3.29599897203175
C         3.83815835973518   12.67205992989675   -6.62402995689055
H         3.87752446615497   12.39863290621606   -5.56845125258307
H         4.67577942679309   12.18570358656608   -7.12794531633761
C         7.71908192130793   13.28239170843152    0.37690795265945
H         8.66450021566896   13.05948220089978   -0.10040970955227
C         2.80287378819395   14.89875990633655   -6.07266869546594
H         2.91920607156995   15.97830156353717   -6.18307175950067
H         2.81825266569066   14.66305062217798   -5.00726627743288
O        12.37540898815937   15.62640975419597   -0.77967955749366
C         9.57029317647137   10.26412180800940   -2.97181158318478
H        10.42565132984516   10.13099508479402   -3.61788874292416
C         8.86537494576577   11.45659045033972   -3.00153900894643
H         9.17693087570593   12.26349778517316   -3.64789785109471
C        10.70300883315485   16.94015178683314   -5.53732008536898
H        11.11651074219021   16.52700266441376   -4.62989136278068
C         9.37705077009318   18.97104203864771   -0.48024860881003
H         8.90411262796572   19.05086469995177    0.48701494903942
C        11.19235865257402   13.72479791630059   -8.32598160982840
H        10.90280184109255   14.76718217789320   -8.35611005579742
C         7.09279077386370   19.78980307857768   -4.08987985664777
H         7.96687750412326   20.17899922154049   -3.58725600294774
C         7.76843386341290   11.64359817480444   -2.17235666758461
C        10.94778540928302   17.52960343536917   -7.85180042390333
H        11.55033625488283   17.57792371357551   -8.74688836227888
C         7.39804600618519   15.66308390912748   -8.43751274461925
H         7.16786095580790   15.86879199288074   -7.40460201238081
C         7.38799085108355   10.62106796228873   -1.30287078417736
H         6.53692165667517   10.76025607079304   -0.65031390958635
C         7.34482869869006   11.12539931032054   -6.40127995079102
H         7.85216225246018   11.41795383926035   -5.49199599100567
C         8.03568312472228   15.14189758114899  -11.09255967384887
H         8.28899850533548   14.94576121116659  -12.12320860242385
C         3.72021355662766   10.78684708961160   -3.45163255226478
H         3.59194821086581    9.76068550820721   -3.76297054101801
C         5.89863301526530    9.62861310368802   -7.59619247637090
H         5.28169122443420    8.74362253583838   -7.61468161352969
C         9.65177301614067   18.01398742991615   -7.86156282489622
H         9.24179949613452   18.44187496985075   -8.76440719698543
C         6.82225251860099   11.53575465995115   -8.72529608757698
H         6.91993849923398   12.14480062397495   -9.61276038385071
C         7.00545510794604   16.54120595907056   -9.43253703655755
H         6.45475392132961   17.43190014953426   -9.17083113739950
C        10.57573429289065   18.78154685766461   -2.97746004002360
H        11.04395290954419   18.73971483956002   -3.94908258599152
C         7.65513520074887   13.45546162664141    1.74495172841411
H         8.55319822476538   13.37044603732997    2.33802004450627
C         2.61483954464414   11.60770834663778   -3.29941909727761
H         1.62269540350893   11.21555676686085   -3.46553255424546
C         2.79300303574118   12.93585622839657   -2.94801941243428
H         1.93796024904989   13.58989195422144   -2.85263586749063
C         1.48806156466230   14.43836197679555   -6.69242593574182
H         0.65550077869992   14.93385146837490   -6.19074870798276
H         1.46228703582664   14.72603529029062   -7.74623574080888
C        12.83309569749536   11.99555896214165   -8.59244976229811
H        13.83908414038695   11.69568820866523   -8.84193097674120
C        11.22852814669803   19.41881363995791   -1.93513261500361
H        12.20452645689378   19.84834070276478   -2.10406757667827
C         9.18578950422136    9.25170184756045   -2.11027672446285
H         9.73697728973859    8.32404788268193   -2.08263868013030
C         6.03111692828865   10.40016064740250   -8.74047450843459
H         5.51624874451796   10.11792262262008   -9.64590930201306
C         9.39408643815841   17.42237645829017   -5.54052331410549
C         7.31902195308295   16.28099002321647  -10.75635516123557
H         7.01146076170150   16.96838939248757  -11.52939107703484
C        11.47254625551629   16.99741614719986   -6.68395567959692
H        12.48832575869599   16.63045002299367   -6.66395911107562
C         4.84410194319301   18.79579007300464   -5.37657897076390
H         3.96687897163034   18.40832489121278   -5.87408369110785
C         5.88483803652649   17.94507009210360   -5.05464405630707
H         5.81463481465542   16.89138220931732   -5.29580647153821
C        10.60634329809676   11.41639683866891   -7.90635251669664
H         9.87252702390235   10.67587098533616   -7.61968009688997
C        11.18150034831688   15.58467696780742   -0.61179827485739
C         4.92142139841531   20.14098127457882   -5.05342720417972
H         4.10395042176787   20.80270842099578   -5.29680608953873
C         6.04552777874829   20.63474502823651   -4.41263823070506
H         6.10721169187181   21.68227600758035   -4.15873805003024
C        11.89930781522459   11.03946007708673   -8.22601104114395
H        12.17799374585701    9.99754015040845   -8.18977423176147
C         8.42763247971406   14.25522668144308  -10.10767558008588
H         8.99674443174121   13.37068230389562  -10.36248885701343
C        11.44354353778832   16.36383989860788    1.57850402741809
H        10.80298260500700   16.60639904786463    2.42230587874475
H        12.00417767359155   17.24326621781332    1.25516403356595
H        12.15091269645062   15.57667519880722    1.84724382708204
C         8.09445959397993    9.43434865488840   -1.27372278401077
H         7.79562267961526    8.64904663852271   -0.59582656768777
C         6.44153252023605   13.74076624199013    2.35213870919338
H         6.39013784580830   13.87935734440120    3.42140195355555

