45
CSD_code = TAYQUG | q = 0 | S = 0 | Stoichiometry = C14H20N6O2S2Zn | MND = 4
Zn        0.84129020544657    0.07534825275372   12.78585592642162
S         1.45264960369685   -2.17644191201824   12.25094816822431
S         1.24139828613986    1.41197120108287   14.73420481655084
O        -2.89960598797854   -3.09973559823981   11.22189527502730
O         3.35150172675177    4.52596362814299   12.14391123823840
N        -0.43777046739727   -3.81157430471879   11.42494542307116
H        -1.43786007721161   -3.98255957926844   11.21584719886818
H         0.28161952623466   -4.51181761963271   11.38174403404053
N        -1.15551465670459   -1.70586268894876   11.90131574643110
N        -1.01026731254445   -0.40496457020898   12.30666288887310
N         2.52650320011741    3.69092897100580   14.43179600859384
H         3.00509151828967    4.36620275325079   13.80847458889965
H         2.45817098519037    3.78474517929424   15.42989955724933
N         2.17791438217172    2.54089107768302   12.50015774213080
N         1.71131267549097    1.50084506658913   11.74101988324075
C        -0.14201247420372   -2.58849434005186   11.83766759002073
C        -2.23828782838687    0.13939025253274   12.27481431709248
C        -3.19426545193733   -0.77090858642458   11.85939461034557
C        -2.52839374033181   -1.98778592568962   11.60403951396391
C        -2.42377607788951    1.56242347802131   12.65341447649685
H        -2.39156887012720    2.19330763869652   11.76546217062366
H        -1.62981941758542    1.87732874227213   13.32854178211768
H        -3.38795799299552    1.70054651401832   13.13584854095261
C        -4.66185675042358   -0.55946439665439   11.67120350557847
H        -5.06295898012994    0.01723760423239   12.50853776714102
H        -5.14325210034278   -1.53872789518437   11.66410714103440
C        -4.96888843624086    0.16407818928690   10.35967256764604
H        -6.04254579881706    0.28706040036540   10.23945647940602
H        -4.59029475032728   -0.41075858602758    9.51793321305292
H        -4.50343990635626    1.14698065556009   10.34503634075895
C         2.03090042280621    2.61810623135833   13.83456190448477
C         2.07475872861750    1.76529959436310   10.47489802535616
C         2.76397600814827    2.96108418408967   10.37609655870607
C         2.85592326634290    3.49786049075646   11.67730427033933
C         1.72145768085290    0.80886029345442    9.39608071581701
H         1.64001960838422    1.32555249921205    8.44385624275773
H         0.77842385318682    0.31574731664368    9.62723225262595
H         2.49319603014440    0.04420452136091    9.30984522331546
C         3.35975281953366    3.59646094689583    9.16143242643249
H         2.65982091197978    3.52748143381634    8.32472997851905
H         3.52923398638615    4.65133240140922    9.38343924638999
C         4.68588589526449    2.94112921158625    8.77422073136766
H         5.10538091085376    3.42690967358707    7.89645867012000
H         4.54208210684228    1.88609296991321    8.55243584633125
H         5.39787273902399    3.02832462983741    9.59129939535214

