45
CSD_code = TAYQIU | q = 0 | S = 0 | Stoichiometry = C13H20N6O3S2Zn | MND = 5
Zn        1.70182423682427   14.78995143242846   -0.01249288109163
S         2.57406675935743   14.97030804451813   -2.28495266144154
S        -0.54148104766779   15.08906075223818    0.92308834947496
N         3.89272290794462   17.12647455485623   -3.02270737376193
H         4.23524290286826   18.07632854327336   -2.79754090057472
H         3.96875721665993   16.69382198102373   -3.92618819670277
N         3.12775490558701   17.16081937062370   -0.87803156676862
N         2.48552867699902   16.64596348571867    0.21585149927569
N        -2.02109521623876   12.97642053061631    1.46303672116313
H        -2.13957089539952   11.94927832459064    1.43710424523009
H        -2.73260969244028   13.62395424068452    1.75206501265053
N         0.02483525713191   12.51513643283042    0.57600900888763
N         1.25480085062142   12.83712283199614    0.07159410657443
O         4.23658117149527   19.13326216239897   -1.44952621465555
O        -1.21400669777260   10.57878045553364    0.97192730556279
O         3.33605481426541   14.31571262645716    1.56777110637767
H         3.80068241792828   15.09859664716752    1.88479599594753
C         3.23372724925750   16.50902867103716   -2.05210337502066
C         2.54504195147678   17.59095476675726    1.16162481069554
C         3.22031980849018   18.71317955983293    0.71917405534549
H         3.41268812457126   19.61046017535789    1.26909875906315
C         3.61688853764478   18.48106960121610   -0.60748504547932
C         1.90529827639501   17.39306315779294    2.49248034093290
H         2.58953782543114   17.73177936406404    3.27418916931417
H         1.68708686173047   16.33333657869519    2.63969906613576
C         0.60035745339530   18.18684338571022    2.58081302104504
H         0.15458427672404   18.06491273713493    3.56459546115729
H        -0.10378230183463   17.82594448674623    1.83551619418667
H         0.78513795888033   19.24361719241613    2.40664783678562
C        -0.86967917230767   13.43143161927323    0.98805462883332
C         1.83641734614470   11.68202294564403   -0.27340724137215
C         1.01763018380911   10.60235084561593    0.00377270401798
H         1.22204337991040    9.56706480937184   -0.16842066560232
C        -0.17538214039948   11.09564655135206    0.55543808559928
C         3.19711120251179   11.68902715660335   -0.87942195156066
H         3.08664208809839   11.75474137573070   -1.96575476319409
H         3.71535402307981   12.59414407370378   -0.55414484546945
C         4.01434046783652   10.45197033561988   -0.52327123662641
H         5.01432447007373   10.53472765849633   -0.94154391884432
H         3.54977200395428    9.55539744491097   -0.92383526960277
H         4.09799846644790   10.34359717348905    0.55587219921472
C         3.48262985456006   13.27897932992892    2.52529064907611
H         4.53710631852722   13.02285651374492    2.65603159339094
H         2.94864745040604   12.41331550401839    2.14169736341188
H         3.05376946700964   13.56784456877524    3.48848881841218

