55
CSD_code = TAYROB | q = 0 | S = 0 | Stoichiometry = C23H24Cl2N4OPd | MND = 4
Pd        5.42231767771875   15.03431833352846    2.53428653920123
C         5.80209515880432   14.19223008803262    8.14737826843169
H         5.65280736075495   13.71724641940577    9.10599956773401
C         1.71067472111673   11.25090790549373    1.68097711171048
H         0.97057864949194   12.03268961718837    1.53178168958935
H         1.29138255986752   10.47038993097963    2.30872929528465
H         1.95279950354806   10.81816326772394    0.70962785856641
C         4.73818569441571   14.32893147376579    7.27721091346854
H         3.76546447514413   13.95381049808040    7.55755854906442
C         7.24091694133730   15.26448445627507    6.55992660101860
H         8.21554421737125   15.63579730257946    6.28177933820151
C         0.28326948653313   15.48220585381794    4.02431139357528
H         0.04831069451251   16.39867112210841    3.48319529268394
H        -0.24166566075770   15.49880780225831    4.97539197377722
H        -0.07495887275023   14.63103507952576    3.44639919991356
C         7.05425335498307   14.66663690304597    7.79535265193417
H         7.88203064282477   14.56878141940700    8.48166638679639
C         3.24822027046424   13.74177903024417    0.73934979880045
H         2.88510924915203   13.08486342966477   -0.05621115902947
H         4.19615363452205   14.21224722603885    0.41670364909171
C         5.88703838930176   12.12310385188854    4.44414348306068
C         8.05260993528394   11.89268877793087    6.17796172807194
H         8.89493932675205   11.79548558968819    6.84653496873165
C         8.16431957931146   12.64825541516600    5.02243082623821
H         9.09599615996498   13.13980677295157    4.78631687355988
C         6.85598543655591   11.26244586655613    6.47450131247975
H         6.76121131923753   10.67903147239155    7.37867178029648
C         7.09031882525800   12.77466681582646    4.16148292102699
H         7.20188753795797   13.35250567127074    3.24417227521553
C         2.93172341621845   11.80111750563638    2.31721269402930
C         1.74200511235747   15.36832389482254    4.27405852887511
C         2.40339597519325   15.09096014170494    5.44849176150466
H         1.95371636690934   14.91704592583755    6.40371637723116
C         3.67782120109433   11.31723623120793    3.36834854918498
H         3.48066794484028   10.43064374392326    3.93424754670960
C         2.19060745512847   14.85150852479582    0.92815348607131
H         2.13452111490242   15.36043851788438   -0.04834158140568
C         5.78107295066958   11.37222293755157    5.61377470866012
H         4.84979011633897   10.88051152027334    5.85200859501993
C         3.77811976021184   15.12272789639062    5.14269762047242
C         6.18514697674127   15.39472652280138    5.67748526008500
H         6.34510889624118   15.88593547185356    4.71651508954018
C         2.54634681714754   15.95807839712340    1.95176127951619
H         3.50531535555552   16.42368200156276    1.65127409343386
H         1.76218024360312   16.72273970627998    1.91136736919649
C         4.76774385379506   12.19754436481120    3.51406819444975
C         4.91424427997797   14.93842563911654    6.03558108264918
N         3.91591070216740   15.40414124478766    3.85263525860953
N         2.69343808891301   15.53118012993188    3.32108045083182
N         3.54793905116200   12.93068634240206    1.89166541916021
N         4.66408778011392   13.15238630665793    2.59747971561975
O         0.94597908851288   14.24411959922914    1.21356065393259
H         0.24254757464615   14.89293427447020    1.10289207451004
Cl        5.94025080692619   17.21924402605633    2.37317875785907
Cl        6.82292280204074   14.51915174007238    0.85035592574444

