82
CSD_code = TAYSIX | q = 1 | S = 0 | Stoichiometry = C31H37BN10OPRu(1+) | MND = 6
Ru        0.07037938511276    3.34510295520300    3.70493670127665
P         2.04356377932848    2.48073655029738    2.70875946419520
O         2.08789801321500    2.93708704836474    5.46882717159697
N         1.14281297425625    3.76385148920468    5.19453372207503
N        -1.65557553665119    3.96894300211875    4.58281510006374
N        -2.49985912853344    4.75710803910810    3.91747259313614
N        -1.13915973733234    2.96736090498847    2.03214421555125
N        -2.00022636075908    3.92056839300755    1.65740642439587
N         0.28328122764128    5.23764430169160    2.99238776300767
N        -0.79611911295651    5.88744299054963    2.54846734226521
N         0.50139850026119    6.83348172219230    6.84924686458081
N        -0.34235875841679    1.46966781565623    4.47210840356455
N         0.44286367492122    0.87397198994407    5.36530323462914
C        -2.17909758631999    3.72350090806918    5.77777818404985
C        -3.40560113719190    4.37714793283302    5.89007444043387
C        -3.57057906039485    5.02072878282914    4.68052375389800
C        -1.23880992783384    1.97612832366025    1.15589706966753
C        -2.18746753988190    2.29116496054109    0.18674639211725
C        -2.64644582833689    3.54081135832863    0.54679607842930
C         1.30050017881617    6.09274757520132    2.98640014875704
C         0.86929300697609    7.33130449138813    2.51476646687437
C        -0.47179365944776    7.15346135483465    2.24625416167078
C         1.09540695104301    4.84813875344918    5.97677250557280
C         0.22668323418161    5.92008074043904    5.92697692104512
C         2.08598388901661    5.09456514842183    7.09954312898423
C         1.64502742124993    6.45133155825576    7.66248220368209
C        -0.18556242048251    8.07332228784604    7.10482807937416
C        -1.31266530670912    8.35690360541043    6.12412624987794
C        -1.38535324810769    0.67123693790396    4.28595379902247
C        -1.25260979253220   -0.47281733777339    5.07565044956936
C        -0.06306589002638   -0.30441524526864    5.75115744779527
C         3.66345731106117    3.33104999285254    2.87498218551431
C         2.44299729452878    0.77299762660675    3.20196116070332
C         3.43710331073618    0.49404857704602    4.13452217923975
C         3.66970933927831   -0.81076398737979    4.53463490692578
C         2.91103791177904   -1.84737527834490    4.01764137822550
C         1.91169755913882   -1.57643780507021    3.09625949201942
C         1.67749588150804   -0.27529927477028    2.69507381079193
C         2.02204252634196    2.38044134468451    0.88450912677322
C         2.67521130672850    1.37944533050273    0.17513288392191
C         2.66172500434710    1.38854651843557   -1.20861229930745
C         2.00690494890365    2.39800210273502   -1.89457341742869
C         1.37368508770854    3.41143313077560   -1.19357596152949
C         1.38426026436576    3.40227706011631    0.18858519582183
B        -2.17001482990361    5.19868679508128    2.48058223182518
H        -2.99540999694219    5.91460645394780    2.04013323457527
H        -1.67231599411971    3.10900418436435    6.49982850694360
H        -4.07271709120292    4.37356428828357    6.72628353471699
H        -4.37102398369967    5.63688458695275    4.32588630437691
H        -0.64431647324019    1.08774112478581    1.24462886217231
H        -2.48933561798576    1.69618396609619   -0.64911562557028
H        -3.38193445321893    4.16865080523188    0.08741237741792
H         2.28042833040046    5.79897064522507    3.31173732239470
H         1.45213038657100    8.21865330006141    2.38301626451033
H        -1.19886397260956    7.83846192526071    1.86101789806220
H        -0.59588810677673    6.07015243911085    5.25527761409153
H         2.03485453907717    4.29360496251311    7.83824901355838
H         3.10551614573109    5.10868694970578    6.71174660640500
H         2.42591909819963    7.21293903939928    7.57821203317673
H         1.34609368009541    6.39094504966851    8.71302121457089
H        -0.58369083492516    8.04225557652356    8.12735306450221
H         0.55236784008738    8.88439141889076    7.06545360777184
H        -0.93867506547544    8.40920961727979    5.10346756773087
H        -1.75979695016010    9.31553378295046    6.37117811951674
H        -2.08868656125005    7.59651532802118    6.18565810429191
H         1.32117702034694    1.34864487315764    5.61899795831535
H        -2.18310612113211    0.92774735100549    3.61381593604749
H        -1.93025368847558   -1.29773324367425    5.13995063253629
H         0.43409681063989   -0.93249062917449    6.46113605248157
H         3.64115177257081    4.23996242793947    2.27459967462215
H         4.44043430776401    2.67231107013507    2.48664147663724
H         3.86609808008175    3.57472356281888    3.91523342834858
H         4.01674113727788    1.29669140512729    4.56200036266606
H         4.44796784836464   -1.01844372715625    5.25363417684085
H         3.09632604794652   -2.86358946146289    4.33004814633675
H         1.31632693656248   -2.38004132847856    2.68948898877942
H         0.90212433364791   -0.06887312682998    1.97119404042051
H         3.19307936571310    0.59077563967191    0.70210610121738
H         3.16711765334093    0.60519985817912   -1.75321837231869
H         1.99554884739088    2.39839004500668   -2.97370539270132
H         0.87186787295046    4.20669298083814   -1.72448443635915
H         0.89699173579402    4.19721538666214    0.74035624625413

