29
CSD_code = TAYYIC | q = 0 | S = 0 | Stoichiometry = C12H12N4Pt | MND = 4
Pt       10.73521723274647    0.00000054696120    3.50410622869151
N        11.97366002177482    1.48493230621122    3.26427284000607
C        11.43953136200246    2.71033635406733    3.36799476869728
C        12.11627049882585    3.93397118049478    3.23733682855222
C        11.42349984861794    5.11187038102040    3.37189496148343
H        12.97315387673713    1.47661056731897    3.07075196172303
H        13.17785824044471    3.93385343150963    3.03213381322608
H        11.94098902318467    6.05430951291239    3.27230848144941
N         9.49678848663839    1.48492581464335    3.74399390134701
N        11.97365921455851   -1.48493236028131    3.26427295699803
N         9.49678928884925   -1.48492586916468    3.74399376690125
C        10.03102738065144    2.71033226759414    3.64091293311093
C        11.43953119538234   -2.71033644660778    3.36799485455423
C        10.03102754426664   -2.71033236046272    3.64091283745793
C        12.11627049391019   -3.93397121869982    3.23733693910938
C         9.35442194941608   -3.93395541709954    3.77235530039624
C         9.35442194388604    3.93395537812375    3.77235540566935
C        11.42349990718047   -5.11187045543517    3.37189502200252
C        10.04733569171471   -5.11186265800045    3.63862584293993
C        10.04733574847997    5.11186258318268    3.63862589498542
H         8.49730143201575   -1.47659121245796    3.93753727800742
H        12.97315303962191   -1.47661075454677    3.07075206249169
H         8.49730059670442    1.47659102464716    3.93753737919068
H         8.29283575134017   -3.93381987344129    3.97756657470419
H        13.17785821911536   -3.93385320725609    3.03213378031684
H         8.29283573016983    3.93382009652031    3.97756654104531
H         9.52996853902166   -6.05429386265053    3.73891118290604
H        11.94098911373774   -6.05430956204969    3.27230848026686
H         9.52996862900508    6.05429381294650    3.73891118176975

