49
CSD_code = TAZAPD | q = 0 | S = 0 | Stoichiometry = C22H22N4Pd | MND = 4
Pd        0.00022355519999   -0.00017617887905    0.00016381863537
N        -0.47048003233622    0.97463934164469    1.66830546673679
N         1.32903874754091    1.45649888743137   -0.24603751301100
C         0.37833359651213    2.05661604693566    1.86200480060482
C         0.50508856116910    2.79807878598325    3.03785737694939
C         1.21270135444907    3.98725441053817    3.05204315066330
C         1.77251348199672    4.47128722070932    1.88228528160062
C         1.78299283900398    3.68252707585021    0.74535162320825
C         1.20016747821367    2.41432545251339    0.75116806396950
C         2.40555813695052    1.27429814360136   -0.99723826366790
C         2.51399519648549    0.24613342332154   -1.94057785974897
C        -1.66114942791173    0.82450281263526    2.23142213553321
C         3.65965615283859    2.10075073819185   -0.82750745819494
C        -2.25107565247270    1.85753344338357    3.16374757023612
H         0.06644934550612    2.43855749529464    3.95359675366064
H         1.28835170187868    4.55278713427174    3.96854021284082
H         2.23920708999620    5.44458166869840    1.86176022278803
H         2.23177445769926    4.06627174432661   -0.15566058894440
H         3.45046091248476    0.23111054146616   -2.47910653285169
H         3.64089300756868    2.97450650364772   -1.47777005579428
H         3.77283036372807    2.43150869116093    0.20232988083543
H         4.52887876369099    1.50646178549714   -1.09862202447132
H        -3.33589329430973    1.83686356349127    3.09437974414220
H        -1.98211247774239    1.64669050708321    4.19808950251653
H        -1.90573552263361    2.85659052451919    2.90760360934898
N         0.47037318230365   -0.97462276190026   -1.66836398186770
N        -1.32912722597487   -1.45640518068310    0.24601509614511
C         1.66092930842950   -0.82429976476133   -2.23166343908070
C        -2.51432200576233   -0.24581773398210    1.94023531557690
C        -0.37827606236418   -2.05677386810491   -1.86187818703906
C        -1.20009344247094   -2.41439425871209   -0.75100075422033
C        -2.40578640569293   -1.27405441996643    0.99698639578479
C         2.25091167641537   -1.85724386859882   -3.16405464659651
H        -3.45088502541133   -0.23065977497555    2.47859416315086
C        -0.50491947659988   -2.79851703711511   -3.03757230331081
C        -1.78275930747394   -3.68266241805254   -0.74491322437745
C        -3.65988337130172   -2.10046894477733    0.82709070628984
H         3.33573904939216   -1.83632503298941   -3.09489695017676
H         1.98170457179234   -1.64647640725186   -4.19834922323651
H         1.90585938119038   -2.85637918043725   -2.90782273769502
C        -1.21231560183873   -3.98782968768657   -3.05149186440691
H        -0.06638656365911   -2.43911368603826   -3.95340833744921
C        -1.77209392726187   -4.47169654092575   -1.88164893425366
H        -2.23158424501334   -4.06621757833884    0.15615841007419
H        -3.64134414965550   -2.97413471796874    1.47747670597088
H        -3.77279595654391   -2.43137276684948   -0.20272819140204
H        -4.52914075234478   -1.50608892086176    1.09789004789267
H        -1.28783954571848   -4.55358519581583   -3.96786108597060
H        -2.23863243994216   -5.44506001652416   -1.86092189738749

