41
CSD_code = TAZCPD | q = 0 | S = 0 | Stoichiometry = C18H18Cl2N2Pd | MND = 4
Pd       -0.00021793994832    0.00071221899477    0.00004619542695
Cl        1.69610246375837    1.46577429191674    0.43913488623400
N         0.10769814979762   -0.73667931117328    1.76821257717318
C        -0.42015965236703   -1.87595764385791    2.55373842553467
C         0.46066377524751   -0.79355610594262    2.99242519262991
C         1.19283272834284   -0.20245844523573    4.04442763238669
C         1.16662625606748   -0.78429294885803    5.32096472468906
C         1.87777228104790   -0.21147855698528    6.35059228908508
C         2.62957045202311    0.94589068542237    6.14536496313490
C         2.65093563544424    1.51736008034402    4.87562623466692
C         1.94674791656101    0.96010042046293    3.82997016741595
C         3.41097941477797    1.54162901523706    7.27200082034660
H        -1.47714111998383   -1.85760718234275    2.79606391824872
H        -0.01386538533858   -2.85588519103457    2.32756316031314
H         0.58445113397696   -1.67943766770712    5.48469393813025
H         1.85673361837347   -0.66063130725837    7.33321219709871
H         3.23048575339817    2.41270033456103    4.70550259699328
H         1.97098614317403    1.39996086103521    2.84259834946092
H         4.29958393729584    0.93959032865469    7.46478490477419
H         3.72940437675157    2.55343845642004    7.03513026763944
H         2.81920028033014    1.55927199457646    8.18532526542660
Cl       -1.69499208522897   -1.46707186368821   -0.43533347443675
N        -0.10773897714592    0.73688149654528   -1.76853961217914
C         0.42010892098665    1.87607427170971   -2.55409653516926
C        -0.46069777828403    0.79361829185570   -2.99272629621978
H         1.47712538101607    1.85772440920746   -2.79629641012421
H         0.01380576972410    2.85599275741537   -2.32791125000470
C        -1.19286251982113    0.20244874828380   -4.04465279840471
C        -1.16666119697985    0.78429818905834   -5.32116160646116
C        -1.94678697714001   -0.96009397697253   -3.83017548088183
C        -1.87783365276507    0.21149449147246   -6.35076219199081
H        -0.58446816841907    1.67943319369155   -5.48488586068535
C        -2.65100695178786   -1.51733945007176   -4.87579083927499
H        -1.97101582932065   -1.39996205241267   -2.84282328168497
C        -2.62963642145467   -0.94587215024668   -6.14551629112644
H        -1.85681689870765    0.66065704807016   -7.33337375167194
H        -3.23057596170735   -2.41266225873968   -4.70564154891891
C        -3.41102793993975   -1.54165488253325   -7.27212120857872
H        -4.29966413775389   -0.93966105542160   -7.46489213988870
H        -3.72939275151637   -2.55347735713677   -7.03523161799814
H        -2.81925204248495   -1.55927217731630   -8.18544651110857

