74
CSD_code = TAZDUT | q = 1 | S = 0 | Stoichiometry = C36H28ClN8Ru(1+) | MND = 6
Ru        0.93974509122563    1.22683284574033    3.95691234326785
Cl       -0.51116887994423   -0.49174479592663    3.29578528673683
N         2.27084601052685    2.56157909501924    4.63975034252994
N         1.80577333737953    0.16688931739314    5.42869940392884
N        -0.53791959794357    2.05665096323924    5.04088516002355
N         2.12526431180570    0.66281647866584    2.42326440136794
N         0.12066550097057    2.21831288829629    2.59230275382788
N        -1.20683426134173    3.40690443053725    0.58823552545690
N        -3.97691539451185    2.90639552302488    2.72172905440396
N         1.98723778590894    3.52195204778893   -0.84930593919028
C         2.46533868158644    3.78423700776986    4.13992767716409
C         3.39417369541277    4.66497273196636    4.64713711735375
C         4.18519646086229    4.28765995424648    5.73603784918249
C         5.20175310243434    5.21648702433925    6.30358827800350
C         3.98469805114192    3.01437577944181    6.24785463472135
C         3.02939192037984    2.16901164337691    5.68900711296633
C         2.75797870200089    0.80789396486636    6.14617309311816
C         3.40318661038891    0.19029172795373    7.21494725375869
C         3.08157415328037   -1.11241449010101    7.57042927690916
C         3.75963657976529   -1.80783437784059    8.70039557652796
C         2.10104253458614   -1.75347970348001    6.81024386020790
C         1.49728383645152   -1.08785536090548    5.76411159175921
C        -0.74145376183345    1.99865006342170    6.35500113127566
C        -1.72642923977418    2.72333508726151    6.99719958385964
C        -2.52239265078656    3.57875778659697    6.24490486722361
C        -2.32718090294105    3.63991515594336    4.87947062943482
C        -1.35284045618634    2.83712863086960    4.28674799386779
C         3.06520624441127   -0.27752335436257    2.41755320846876
C         3.63881391669280   -0.76356174604699    1.25818452568756
C         3.19900172746609   -0.26487595376165    0.03851197081645
C         2.22608395477480    0.71456945379794    0.03159866543798
C         1.71202379804266    1.18378125674310    1.24054734317943
C         0.63386979352373    2.15636037649715    1.35210872606368
C         0.01762257114223    2.96071157583585    0.36780644365151
C        -1.81940684836506    3.24937682276383    1.75491896601459
C        -1.05867062579741    2.80760358476445    2.85937451294581
C        -3.26736899536271    3.47395502102163    1.74821333907780
C        -3.86144322782968    4.18597256155437    0.70503589117811
C        -5.24120813315116    4.29705049595452    0.68379198104697
C        -5.97739024933099    3.69186824918404    1.69047285380709
C        -5.28925586331354    3.00987424137835    2.68706487854984
C         0.65975267657781    3.40079112420027   -0.87401930053824
C        -0.10797971301194    3.73547891819738   -1.98853232277791
C         0.54112738817297    4.20253232986891   -3.11887273018601
C         1.92157913851834    4.32853048458475   -3.09330805729512
C         2.59268414955080    3.97521201716312   -1.92937360375421
H         1.85009933488025    4.06532101321729    3.29350567206163
H         3.50771601754340    5.64047165672248    4.20212788686713
H         4.74777169212738    6.17752317054694    6.53804024038406
H         5.98873000902105    5.39762659958848    5.57233180655629
H         5.65165561857897    4.80833047651716    7.20386632177450
H         4.57622818299596    2.67846470625750    7.08384470415924
H         4.15496416307905    0.72342137643383    7.77406561543196
H         4.27517531995816   -1.10272986575957    9.34644293336909
H         4.49241082112023   -2.51453572462748    8.31085832805097
H         3.04063020630371   -2.37330087456707    9.28855375236452
H         1.80978250911165   -2.76628783756447    7.03805886613117
H         0.73053921156233   -1.55942633273005    5.16040697704407
H        -0.08803127575278    1.33891477356370    6.91468808421975
H        -1.85897567662170    2.62891111122098    8.06254493966988
H        -3.27959565846046    4.18419188369438    6.71705669655148
H        -2.91948058651006    4.29759441125063    4.26820432639656
H         3.36285071663470   -0.66475783025371    3.38557386690901
H         4.39522294745719   -1.52942308417886    1.30894460590415
H         3.60027302021749   -0.64317799296095   -0.88827102438179
H         1.84765406453433    1.10596047551680   -0.89639801903465
H        -3.24199394754382    4.63393705618285   -0.05443168207726
H        -5.73406750845387    4.84285083134904   -0.10690257377100
H        -7.05399888468216    3.74619645917002    1.70598169298097
H        -5.81217916754614    2.52080909128875    3.49793849657191
H        -1.17827048082876    3.61597676143776   -1.95229546514681
H        -0.01960199411863    4.46518167749740   -4.00333460082926
H         2.46546096483981    4.69146192834121   -3.95047522403149
H         3.66873745699381    4.05906520401156   -1.85454037519442

