95
CSD_code = TAZNOZ | q = 0 | S = 0 | Stoichiometry = C40H46Cl2N4O2Ti | MND = 6
Ti       -0.78368439888533    5.39792392803025    3.90290842732508
Cl       -2.92096495543646    5.57416054081370    2.97860405862262
Cl        1.23476540663451    6.00802817744642    4.92125714850102
O        -1.15399812382581    4.16714553774675    5.01796276227310
O        -0.10080613331569    4.58370713470377    2.57699162915415
N        -0.46346524577606    7.26206401915079    2.78045248886210
N         0.83800262696077    8.93224327370891    2.18994325372602
N        -1.59440897484299    6.81923922234097    5.36131798927823
N        -3.27843789531225    7.91564939588662    6.25119807672473
C         0.26647957472387    8.26913562360175    3.20836524566400
H         0.40228975925108    8.54838724095685    4.23747605161047
C        -0.36726203631025    7.28100038778675    1.41996064443684
H        -0.89259614935534    6.56468707535833    0.81303579771950
C         0.43881088213002    8.31409809097987    1.03932332867073
H         0.76522983734090    8.64525124245259    0.07470952060463
C         1.73094157863802   10.02755230432930    2.31380495490940
C         3.03461361720849    9.78682206147134    2.75474843683947
C         3.88522462293730   10.87396876468327    2.88286028484576
H         4.89803772388324   10.71008637630248    3.22062571596977
C         3.47052801276587   12.16645546401146    2.58683925480085
C         2.16890968175672   12.36943519690574    2.15347851333964
H         1.83307937696443   13.36990215965984    1.92230693446553
C         1.28171744290357   11.31183549686127    2.01396926118892
C         3.50252028325780    8.39655468275300    3.04664168206158
H         4.52805832771632    8.40928507907802    3.40424198258391
H         3.46093260216976    7.78837685755983    2.14338348102140
H         2.88305998321952    7.90287265348370    3.79609944396274
C         4.42557195334625   13.31119586937633    2.72939323642352
H         3.92315433311874   14.26212279793603    2.57354748518021
H         5.22973580442717   13.22125983747256    1.99982225508035
H         4.87582086897356   13.30974971724059    3.72041011681954
C        -0.12642266010706   11.53814777465130    1.55204878136196
H        -0.83360727101789   10.99328823723604    2.17619955140053
H        -0.25345639722654   11.19067742673863    0.52682403613196
H        -0.37273620978834   12.59597926232913    1.58499593730927
C        -2.59441371560478    7.64112058478242    5.12851222796404
H        -2.85073013642449    8.05575470574749    4.17044328698425
C        -1.62796347294150    6.55653769883384    6.69922397360836
H        -0.89689731728625    5.91629730996997    7.16094269594469
C        -2.66999207094452    7.23203373035386    7.26492725519422
H        -3.02933241700836    7.27237355944179    8.27285575227879
C        -4.44803437235083    8.71429988944047    6.33031440475335
C        -4.36611267754856    9.99546185837767    6.87266390085728
C        -5.52016641792710   10.76269283352249    6.92496964565786
H        -5.47154001912967   11.75727532012691    7.34404090385137
C        -6.72977118364882   10.28092164819772    6.44485943840582
C        -6.77626064938603    9.00174470146699    5.90691706649660
H        -7.71455301912086    8.62013250476372    5.53192827032668
C        -5.64840964568917    8.19750916378079    5.83808840220015
C        -3.05964095454328   10.52432216140769    7.38335307624456
H        -2.79596405074705   10.04673053136604    8.32691763766714
H        -3.12201750658009   11.59612730855085    7.55110817050384
H        -2.25569911626500   10.32576750496426    6.67570656902401
C        -7.97068872294977   11.11545388948522    6.52480680619237
H        -7.72689722616821   12.17437549085952    6.55755580433756
H        -8.52589986470007   10.86765576732625    7.42988608630923
H        -8.61896526983646   10.92657602052292    5.67252434742309
C        -5.71592259669774    6.81031016982430    5.28266219604525
H        -5.02974218759208    6.66959418071913    4.44678167262363
H        -6.72255924984948    6.58758255239470    4.94082705224869
H        -5.44377604929100    6.08445179015540    6.04852127683994
C        -1.34613499920207    2.96346808420827    5.53888944612977
C        -2.61065785470332    2.62847613717005    6.06153803636372
C        -2.80866443407775    1.36784990055367    6.59749572741308
H        -3.78167408386346    1.11128331565088    6.99239512632378
C        -1.78218308486840    0.43985099365938    6.63145930181033
H        -1.95035125073867   -0.53907233116176    7.05492289213687
C        -0.54041357059186    0.77145264785206    6.11948611520345
H         0.26255473664076    0.04836496092097    6.14305340207102
C        -0.29998499742032    2.02038234365795    5.56903769795194
C        -3.70766617941125    3.65074969389825    6.01440758775615
H        -4.67270243892097    3.18927217438847    6.21111849959449
H        -3.73071576309238    4.13097768674459    5.03374839942107
H        -3.52788452284702    4.42418938936577    6.76536279007416
C         1.03926015040802    2.37305832152116    4.99364582695884
H         1.81644111662165    1.73898983912121    5.41503502828667
H         1.28348765701409    3.41807986469148    5.19605531691730
H         1.03488304719832    2.23198297333593    3.90880846769532
C         0.40058873719692    3.64128157232346    1.79257938065080
C        -0.36740714397912    2.50489682697491    1.46862589498598
C         0.18691841195684    1.53110506553575    0.65444737586838
H        -0.40088083289484    0.65849047710347    0.40699066930425
C         1.47388463809738    1.65804647454737    0.16073824699699
H         1.89079004385915    0.88703927722019   -0.46984770406081
C         2.22426646788241    2.77645039896479    0.47876228296345
H         3.23025110020967    2.87772249813132    0.09629323945673
C         1.70719722981607    3.77564907251464    1.28605720844730
C        -1.75625882372181    2.37803691185557    2.01753258077279
H        -2.34510633857711    3.26646181725540    1.77885856825629
H        -1.72853550155826    2.28395145441336    3.10736557721944
H        -2.25459529581666    1.50277820059195    1.60717005685904
C         2.49985461233131    5.00016262457391    1.63590150842773
H         2.14062616038126    5.85264805111382    1.05378436088521
H         3.55549184356206    4.85070181267852    1.42115433076627
H         2.37753322406107    5.23882968121216    2.69424107124745

