82
CSD_code = TAZPEQ | q = 1 | S = 0 | Stoichiometry = C22H52N3P2RuSi2(1+) | MND = 5
Ru        2.23860851916911    2.72978351852365    2.45082291971969
P         3.25218612772753    2.81034616865307    0.35495971623676
P         1.51325443400904    2.52171578897912    4.66625196060320
Si        3.40468621469246   -0.15177020130391    1.14405090911630
Si        2.95236576991753   -0.25789614247213    4.24581717221976
N         3.24023635882972    0.65976379994769    2.73198254721206
H         4.11429146587258    1.16647048970619    2.88746001894655
N         1.45501372615587    4.28242245698603    2.21108703798255
N         0.91685579303018    5.25032415250482    2.03945442294786
C         1.67653726520458   -0.64632664646751    0.52099251233140
H         1.20511002561639   -1.38263366848160    1.16294173433601
H         1.75614152123786   -1.09163316200404   -0.46617451232523
H         1.00762531787035    0.20703339880983    0.43772875356336
C         4.60634974585921   -1.61486058923081    1.23977884674734
H         4.21671352809652   -2.40663034395823    1.86840530101163
H         5.57998270091775   -1.33271612151559    1.62797183515702
H         4.76076288510310   -2.03484448453061    0.25234521249302
C         4.15245527426624    1.22801626327521    0.05065680506311
H         5.21056526322062    1.36223714088339    0.26283667905924
H         4.07248885738647    0.95866749885479   -0.99870894537090
C         4.53616961414930    3.97542113424641    1.14666929912752
C         4.12079504590314    3.69953348049926    2.60166799916241
H         4.05913019305328    4.63164809069659    3.17425476796952
H         4.84786510327645    3.04242122780289    3.10239389858962
C         6.00660163950384    3.67108611610764    0.86256860623096
H         6.62147138511321    4.45448710649753    1.30290998933209
H         6.20461308428538    3.65205401198787   -0.20747279426939
H         6.32852059962945    2.72644343523794    1.29782206604493
C         4.26469890874888    5.44070216016838    0.80516059204161
H         4.86449216947291    6.07554742830076    1.45641854439511
H         3.21899876154316    5.69627886377900    0.96359573389152
H         4.54222362716640    5.66812765278893   -0.22087566467792
C         2.67164403222451    3.32753522340127   -1.36726594228053
C         3.84503113033527    3.48991078319354   -2.32765851029530
H         3.46950029065462    3.74981653261294   -3.31583207147006
H         4.42437085661305    2.57397990992764   -2.42220503548532
H         4.50955275224640    4.28661095470805   -2.00264392889735
C         1.85474466038349    4.61845302703311   -1.29052783196660
H         1.29785910455922    4.74719249053433   -2.21706808483803
H         2.48159371039028    5.49361557544006   -1.16187764839116
H         1.13538674247530    4.57893392157293   -0.47231244393671
C         1.72718858178084    2.21482382867702   -1.83409475747493
H         1.32272322620417    2.46811631143868   -2.81223649070712
H         0.89057703599956    2.11808599247393   -1.14139858302088
H         2.22250579476996    1.25097612645585   -1.92180729559745
C         4.65102393341714   -0.81216575570330    4.89814770683330
H         5.10336091865187   -1.55264311150866    4.24750943037226
H         4.54767924243055   -1.26901725578357    5.87660724921216
H         5.35408287986479    0.01057970912482    5.00018335101507
C         1.83363539378828   -1.77516426159989    4.00168869232774
H         2.25262234625127   -2.44446925845277    3.25856573806808
H         0.80976822743882   -1.56201009338930    3.71381115607030
H         1.79419304243007   -2.32391458746877    4.93745125045728
C         2.24283228739298    1.03481764639276    5.46934369858905
H         1.53301641169834    0.60013032391756    6.16976119956199
H         3.08524437176414    1.39978811175100    6.05500625538507
C        -0.28067118509563    2.00053862820855    4.31437013842681
C        -1.19233381546748    3.22043501441599    4.16998539917918
H        -2.14689303054919    2.91269916314438    3.74386464276533
H        -0.75717169956128    3.96778903420765    3.50612453431755
H        -1.39881924093889    3.67875128159564    5.13302914441046
C        -0.89715670625494    1.02216106380705    5.31227230975674
H        -1.93921498997979    0.85036275889751    5.04595934211543
H        -0.87676454117443    1.41855977828351    6.32366578740656
H        -0.39100636810222    0.05981271409790    5.30063373747835
C        -0.16972200027086    1.32193914464015    2.93723811404469
H        -1.15748962641741    1.02335012333818    2.58425431496687
H         0.45423744374295    0.43010798378526    2.99290819142797
H         0.24944773302175    2.02166732724400    2.17508853741279
C         1.64745988470145    3.83120710045790    6.02179254525678
C         0.80923500833013    3.50869396168564    7.25445452650043
H         1.03431052473067    4.22995814407855    8.03826385012686
H         1.03515770477378    2.51641218146163    7.64027175196679
H        -0.25470100791662    3.57330063505597    7.04288930069440
C         3.13320370629234    3.90302826475324    6.40165130190079
H         3.34160095464849    4.85994922207251    6.87507113514682
H         3.76100133817425    3.82431586269771    5.51273690197836
H         3.41329211814854    3.12587045970320    7.10879646291969
C         1.25743417895712    5.18926378614585    5.43699231686066
H         1.43132247353446    5.96783105085926    6.17735535954886
H         0.21182123515910    5.23487458022947    5.15254764199883
H         1.86697200771814    5.41321856512601    4.56196164297095

