82
CSD_code = TAZQUH | q = 0 | S = 0 | Stoichiometry = C32H45BrIrNP2 | MND = 5
Ir       10.21515003175037    0.05566073739106    3.01519857422641
Br        7.88203430730153   -0.01852860665248    2.21505352803592
N        11.86235953970617    0.14303335114796    4.23988975058477
P        10.46684841911722   -2.22909770707891    3.24657844966845
P        10.25733706930887    2.32983322870814    3.36692255823260
C        12.89784996349648   -0.92372177936502    6.17656400135627
H        13.15246735763623    0.03506865182641    6.60469734977020
C        13.25595966546301   -2.07489221754308    6.83619792478396
H        13.80927172497023   -2.00093631247700    7.76219977672992
C        12.92722405160160   -3.33583487342985    6.33826965011814
C        13.38661356815276   -4.57782193371267    7.04114486950645
H        14.47538160360788   -4.61850465246642    7.06907871099633
H        13.02118672509519   -5.46868490856325    6.53552111119161
H        13.02794149859147   -4.59104752830539    8.07043994942759
C        12.13024659148128   -3.39185831558915    5.20909104403482
H        11.82529109722143   -4.35511900211402    4.82510632546826
C        11.71144020325332   -2.23889008383082    4.55682816288589
C        12.17748394070031   -0.96794472478771    4.96749668056761
C        12.57841017450414    1.30961109034436    4.32485992546642
C        13.94280873367315    1.36747902343640    4.65316161636673
H        14.48310883360947    0.45050098945745    4.83729201955437
C        14.61330988026031    2.56903830795946    4.69257255897245
H        15.66513098301723    2.57581251620338    4.94259446957266
C        13.97769731136824    3.77260304645702    4.39635267280918
C        14.72516348102207    5.06978561980781    4.47198144569762
H        15.66905202652733    5.00026797524978    3.93326358614244
H        14.95258867220362    5.31695294113470    5.50957705467425
H        14.13996263303324    5.88164187711891    4.04655824056390
C        12.64879278271419    3.72450280800832    4.00708614761877
H        12.15166087419052    4.64118655678427    3.72144498972400
C        11.95509653896255    2.52487439865997    3.96134558947216
C        12.45186388845581   -3.13135463986889    1.53584462396770
H        12.83192746450942   -3.90729834907939    0.87328318484626
H        13.13728413833466   -3.02841888283141    2.37574656141517
H        12.43270186264594   -2.19112831208754    0.99041790949095
C        11.05351445310233   -3.49668709811670    2.02185851856942
H        11.10606809694700   -4.45669207650929    2.55032388993640
C        10.07034936300445   -3.59648629631326    0.86070061208769
H        10.01880803952843   -2.64423177394148    0.33758746475027
H         9.07096598507387   -3.85324361044057    1.20629615952367
H        10.39646462162552   -4.35899922713634    0.15503330073841
C         8.92988444507607   -2.98415509584508    4.00518376766762
H         8.14599625495554   -2.81670859916772    3.25381250479894
C         8.97285348958535   -4.47053779935134    4.33951318433097
H         9.68821109744832   -4.67259480346570    5.13322622475621
H         9.21789275056016   -5.07754065160336    3.47151936982632
H         7.98943906729160   -4.77990676956285    4.69232407982385
C         8.57917449465665   -2.17164862965316    5.25036117640630
H         7.65591512664063   -2.53846483763398    5.69570803781693
H         8.42250512107972   -1.12273698750033    4.99730832770313
H         9.37361402030603   -2.23914277358278    5.99499642309099
C         9.19643182470866    2.79314124147407    4.83336537451484
H         8.15751484067660    2.61883990328022    4.52375862335574
C         9.53476213603282    1.83979818963004    5.97795864526969
H        10.55894819465017    1.99724792384972    6.31619639037430
H         9.43604585148498    0.79821568683851    5.66998522728997
H         8.86536847132115    2.00060687113659    6.82215634059494
C         9.35902813040061    4.23997638130279    5.28499778912745
H         8.78326497669411    4.40318045450491    6.19547330455266
H         8.99985783418275    4.94026993617327    4.53484270595720
H        10.40371056284352    4.45710352780001    5.50314307850198
C         8.52373386861449    3.70397718799097    1.68574917248356
H         8.37293703296297    4.47772006755182    0.93480742355190
H         7.83938207938900    3.89323709242291    2.51015546361610
H         8.26561503915022    2.74502216446813    1.24199841757566
C         9.97741589521270    3.70268281228386    2.14865006577637
H        10.20134744049810    4.64729826929914    2.65902146223236
C        10.92351491406414    3.54038886549562    0.96322100814621
H        10.66892379807654    2.64817382171499    0.39633963017352
H        11.95684110379835    3.44924814820337    1.29410846869584
H        10.84514128369205    4.40208905153014    0.30228876173180
C        11.21666848091217    0.16420529364217    1.21400050870531
C        10.54880951657466   -0.04200507486427    0.00891721618651
H         9.49052308546485   -0.25185099155318   -0.01839678720263
C        11.22468938656965    0.02996522276503   -1.19996425148405
H        10.68013369005279   -0.13371184949659   -2.11851963335663
C        12.57802991917075    0.30991441215685   -1.23204632699631
H        13.10310502840582    0.36610253624144   -2.17395320195016
C        13.25070044956592    0.51727143643633   -0.04182049994758
H        14.30878418545763    0.73657063691829   -0.04547464402996
C        12.57831485419503    0.44299896033272    1.16793806807011
H        13.14365206075069    0.60662856039715    2.07138814280275

