50
CSD_code = TAZREU | q = 1 | S = 0 | Stoichiometry = C19H24N3NiO3(1+) | MND = 4
Ni        3.00537855246641    5.60186430600790    5.29535549596551
C         5.05029404266240    7.36502854255748    4.16222178980247
H         5.69910370586254    6.50155188963192    4.24926095033357
C         5.49247946879732    8.56470997403572    3.63154758663884
H         6.50787094983806    8.65857504870235    3.28376207036912
C         4.60958520135596    9.63084893956804    3.55670120149320
H         4.92106632935363   10.57846728535384    3.14601482843106
C         3.31349111173573    9.46089473684776    4.01903708014612
H         2.60037649982706   10.26904730791606    3.97889726319797
C         2.94063992210049    8.23065526312622    4.53755963248163
C         1.56865037538122    7.96083528885386    5.10388691260321
H         0.80304334156383    8.53341560714470    4.56702949224523
H         1.56799531780339    8.30167935788198    6.14530948529751
C         0.63670980435931    6.14864391541725    3.78993357879657
H        -0.17873927464039    6.85174878890193    3.57525970748451
H         0.20327187366960    5.15219037701076    3.89011584382946
C         1.62834400521475    6.11703207707812    2.63063896520058
H         1.98560400190685    7.11809686322636    2.38474314944837
H         2.49906466314052    5.49707822800051    2.90776864887690
C         1.01475117222114    5.52961469498746    1.35976141092601
H         0.73446285990198    4.47927289243855    1.52394469089048
H         0.10707419028639    6.09160368079975    1.09227504821392
C         0.45879037054124    6.05094567392064    6.20522591424625
H        -0.60326897413732    6.27189058616433    6.04781845606665
H         0.79526343349366    6.56896640129265    7.10731503564425
C         0.69023332123298    4.54706799764485    6.39798703082265
H         0.36559140191665    4.24324388555245    7.39942542763895
H         0.11400587621411    3.96249532733381    5.67058978871173
C         2.62050813942838    3.18322414552799    6.69509528312267
H         1.95909518154481    2.50143484584515    7.22911337096573
C         3.97681621957465    2.79662032892369    6.60150840653770
C         4.90835003282427    3.65100502998096    5.95169842950240
C         6.28398623648821    3.24992100242943    5.91678111286598
C         6.66681002300780    2.05992220249478    6.48724148004424
H         7.69877343207265    1.74948305628551    6.46209220424821
C         5.73082417808242    1.22686549960657    7.11789730328184
H         6.06936957748472    0.30234139619401    7.55676160245963
C         4.41617220415124    1.58209071112895    7.17910828680270
H         3.69443090985409    0.94650742833905    7.66755616320814
C         8.47010905420738    3.82068623359286    5.18186139952306
H         8.93374569460820    3.73526138748520    6.16895477527845
H         8.92265279339910    4.65051370917661    4.64224395897006
H         8.62896524981992    2.89502792214568    4.62123865918710
N         3.80449420032799    7.20454802663424    4.60395111863287
N         1.28155727503777    6.51300362460134    5.06790712945701
N         2.11601750226386    4.27815259634607    6.21287313020659
O         1.98611332850179    5.64030702313705    0.35035832999324
H         1.65011868454993    5.26564161822906   -0.47031104534131
O         4.59819160909114    4.77241047503384    5.38876875303081
O         7.09876492961379    4.13336679945944    5.28241366221896

