39
CSD_code = TAZYUP | q = 0 | S = 0 | Stoichiometry = C14H22N2Zn | MND = 3
C         7.71433439834588    8.33070605068432   -4.44055615578383
C         7.31104460176101    8.54564537907891   -5.77510238036947
H         7.12004860193913    9.58275965597957   -6.01797153113837
C         7.14320772684380    7.67969197909767   -6.83368276504650
H         6.85815724640419    8.14666289066834   -7.76994240503270
C         7.20425981931545    6.29588873649155   -6.84517640812562
H         6.89948835782198    5.79786417361301   -7.75591868201756
C         7.61974204589707    5.49184192664148   -5.79678539832309
H         7.53655883750729    4.42348183487957   -5.96134531073006
C         8.20614615436558    5.85550344674272   -4.60381211337007
H         8.51840878531275    5.01874817341671   -3.99307571071525
C         8.44779604858914    7.11772208219331   -4.02230801099101
C        10.15448879197582    6.24981401719863   -2.53815328781150
H        10.37652485586353    5.54295617382150   -3.35074313647550
C         9.52792140493198    5.50008062694439   -1.35916711605756
H         9.32385366806083    6.20214593258869   -0.55122787550431
H        10.20415965452600    4.73032157624256   -0.99510253275090
H         8.58966304969555    5.03362317308641   -1.65143846630037
C        11.47130614519207    6.89561364973054   -2.11001937309696
H        11.90149393062586    7.45252747899979   -2.93907880542488
H        12.17969511390879    6.13286927508712   -1.79557318986318
H        11.29835726874504    7.57881219084906   -1.28125095030111
C         6.73913005019431   10.41190041926695   -3.67192992487741
H         5.98889747318846   10.24549432881422   -4.45847601906183
C         7.61251959245931   11.61393067407136   -4.04109097478336
H         8.34706526555463   11.78384422117191   -3.25464741928983
H         7.00273025757754   12.50724985295455   -4.15309653688168
H         8.14508141485668   11.43345032818683   -4.97236059407445
C         5.99263301733029   10.68170019903487   -2.36599063955126
H         5.38214024600292    9.82165457305337   -2.10088912955270
H         5.34642985911666   11.54961484291447   -2.47368441219306
H         6.70215314402028   10.86669823841638   -1.56211299443443
C         9.40862679319540    9.92490911097711   -0.31088261114847
H         8.87778017379618    9.54763813241788    0.55934930643940
H         9.20875404062234   10.99120713356719   -0.35630996906026
H        10.46788423014299    9.81728554580081   -0.09843996971611
N         7.55837646687154    9.23427634191530   -3.49264447761602
N         9.26206226704616    7.28989750321038   -2.99908769156888
Zn        8.84827920053714    8.96566813016059   -1.99587433734615

