81
CSD_code = TAZYEA | q = 1 | S = 0 | Stoichiometry = C36H32CdN5O7(1+) | MND = 8
Cd        8.84298920992374    3.07260263161665    1.47433201731939
C         7.06216832447216    5.33797085191207    2.67666484414518
H         7.63330859355767    5.87255543274824    1.92906316407326
C         5.98118231613658    5.96120076382496    3.31716183339612
H         5.74300877446331    6.98689294430843    3.08515813091189
C         5.23128156996915    5.24108039123671    4.20716052921627
H         4.37705426469878    5.67555376677739    4.70497355791835
C         5.57424999422461    3.89926409144634    4.47000861741134
C         4.83753939629565    3.07888234600658    5.34940891873841
H         3.97426840329469    3.49152138324089    5.84777357327334
C         5.21797257267655    1.78339687442808    5.55582670741404
H         4.65505015361370    1.15035546557584    6.22371293443758
C         6.34904537703174    1.25145141015929    4.91784328264719
H         6.62553072311951    0.23017672317223    5.12702956904194
C         7.09731523139937    2.02149686428925    4.05917532287977
C         6.71005084506987    3.36995242596723    3.80006042182019
C         8.42701929848872    0.23408513559695    3.22820249492109
H         7.47610760850936   -0.25868831907998    2.98845968606097
H         8.87631137164365   -0.23549332500979    4.11613755851786
C         9.38828872943327    0.08555290956336    2.04514137656945
C        10.33946286045420   -1.48596761432923    0.44040787662032
H        10.83869264399186   -2.44458768877568    0.60088933054656
H        11.10376821823728   -0.70677078591610    0.34825165510545
C         9.52428748316623   -1.53271929345784   -0.83454384953845
C         8.28164267013133   -0.92086137482408   -0.93408377913635
H         7.83990891322209   -0.42797436417740   -0.07958631433794
C         7.59257746277298   -0.92228601707807   -2.13666570462611
H         6.63701598507417   -0.42476018326488   -2.19868533886093
C         8.13524519610296   -1.54542027708100   -3.24653623537644
H         7.59878522067986   -1.54784584513699   -4.18281881381146
C         9.36850559449312   -2.17002690272054   -3.15011015167483
H         9.79409749717724   -2.66462813183500   -4.01001684622484
C        10.06007560266970   -2.16172807431172   -1.95209588234270
H        11.02414461939460   -2.64402310255473   -1.88152196726003
C         9.77613507808381    2.15063475003281   -1.34175398591981
H         9.41337440893092    1.22604925545388   -0.91278561089155
C        10.10745865844847    2.19388259626910   -2.70457006611155
H         9.97703569471282    1.30784975039778   -3.30521342143637
C        10.58504992050186    3.36097840192988   -3.23442086195070
H        10.85330257087937    3.44000284790242   -4.27745965580139
C        10.73041602721698    4.48692374832538   -2.39686442206376
C        11.24706249205679    5.71660866675176   -2.85365850938196
H        11.54093360646857    5.80536348289036   -3.88785218485835
C        11.37287513979139    6.77200517958104   -1.99549877989428
H        11.76957748618628    7.71353781761364   -2.34140246863458
C        10.97580591506780    6.65725594184418   -0.65513402558177
H        11.06352238364616    7.51682644341064   -0.00767180528670
C        10.45781494607008    5.47766549073530   -0.17904500448407
C        10.33909766453778    4.35035395822258   -1.03779267563498
C        10.73282223530616    5.90450664889655    2.15360978310549
H        10.22089346381488    6.80500389094016    2.52130361940517
H        11.74674485462289    6.17150147159195    1.82981302781688
C        10.82795543168148    4.86355587443099    3.27910307458063
C        11.52817708520427    4.46667687733190    5.59067906860131
H        12.48410027550266    4.68253911147855    6.07100164503527
H        11.51160262598982    3.42800570712832    5.25400591725510
C        10.37899047014257    4.73101622113957    6.53068557671710
C        10.53683272634862    5.53669018537375    7.64960627648562
H        11.50499969272513    5.95883085280264    7.87693688118784
C         9.46122014075104    5.78955464221229    8.48414518348688
H         9.59302637623318    6.41083820443597    9.35647806405280
C         8.22052257872284    5.24457100041943    8.20120875045527
H         7.38360843818950    5.43991498835116    8.85394292882764
C         8.05601055038680    4.44329515891466    7.08301081608667
H         7.09137304891852    4.00984301659411    6.86406008710037
C         9.13050474239437    4.18830575462897    6.25020265221499
H         9.01252812351017    3.56130457048450    5.37850679980385
N         7.42282775911184    4.09773968015025    2.90922175399185
N         9.55706175207927   -1.17079658340349    1.61937603905173
H         8.98203849329749   -1.91064857670045    1.99237224031898
N         9.87761387499301    3.18075631052625   -0.53514828851498
N        11.41717969076161    5.29640847853097    4.39635867223493
H        11.66673295255072    6.26891794929017    4.49193376868416
N         6.89390774813271    2.62035838002993   -0.06878129703160
O         8.23476426803729    1.61168925343575    3.43768556075594
O         9.97589334135844    1.04033153265241    1.55795228433087
O        10.00139732390771    5.31575913934198    1.10342362283060
O        10.42067290677042    3.72228555055653    3.12908131792228
O         7.29261093118978    1.78223025635606    0.76924106598947
O         7.28357151836257    3.78789077965324    0.05070212414312
O         6.15749986087635    2.28617422888492   -0.95337405850129

