21
CSD_code = TBQUNI | q = -1 | S = 0 | Stoichiometry = C9H7Br3NNi(1-) | MND = 4
Br        0.15068304949434    3.08876573754012    0.75799617093730
Br        3.32154239898100    3.40179087937563    2.08154160673215
Br       -0.54564240195072    3.65826207076812    4.06591043293902
C         2.49981551593599   -0.78823582877310    4.62031864643848
C         1.00669590313367   -0.02626774607892    2.45718360200288
C         1.32904241322023   -1.38386094765904    2.61828149980022
C         2.07472848008549   -1.76663197736889    3.69865978594887
C         3.27333441578645   -1.08013537254726    5.76049695401729
C         3.65595319117777   -0.08375537838894    6.61473480078236
C         3.28177063400080    1.24660616344775    6.37006689065957
C         2.53004986208167    1.56159940325560    5.27405553670522
C         2.12336847184548    0.55861697264435    4.37273167728434
H         0.41664382835185    0.29601985094265    1.60758689072630
H         0.98246098543161   -2.09984428735030    1.88864425837534
H         2.34497501350456   -2.80206471260929    3.86158370128908
H         3.55781843030628   -2.10780410774463    5.94392691134201
H         4.25219918509247   -0.31451059571691    7.48670599508444
H         3.59438998542055    2.01994856230491    7.05660086850296
H         2.23604408384183    2.58513111489325    5.07530957705646
Ni        1.18723460814441    3.16461630134770    2.73603060118817
N         1.38459194611433    0.90635389771618    3.29333359218745

