109
CSD_code = TBZQCR | q = 0 | S = 0 | Stoichiometry = C42H60CrO6 | MND = 6
Cr        0.00010255850006   -0.00002385280776   -0.65268668518907
O         1.03487190664571    1.24562741872451   -1.64480294927722
O         1.48671392580283    0.10543887841057    0.41487186449042
C         2.06354583296829    1.72956362234899   -1.03786195191384
C         2.30742814370173    1.08561857638786    0.22157349655430
C         3.37998664503230    1.49624344798399    1.03954487590321
C         4.18975861597374    2.49888013226826    0.54480304527682
C         3.99929752834000    3.11173684804146   -0.70580929243045
C         2.93634851692888    2.71952291001139   -1.49861785386994
C         3.54788350175239    0.85106169187882    2.40475780644656
C         2.25346875123572    1.06633336722075    3.20161807342483
C         3.79046204071788   -0.65221987074497    2.21123491351515
C         4.71689583902187    1.44127089871117    3.19669315686388
C         4.97675154385395    4.19574072660468   -1.13602572811774
C         4.93903757840596    5.34362248789940   -0.11671215410965
C         4.64450441625989    4.77352114118071   -2.51412624474947
C         6.38999048383268    3.59851810875426   -1.19760170767695
H         5.01510159143420    2.83448732549178    1.14870894093368
H         2.73176042135446    3.16461156368879   -2.45724910336549
H         1.40648473466652    0.63998115813035    2.67062837888040
H         2.07112358586397    2.12946256962915    3.34616948998266
H         2.32659473562212    0.58841340587010    4.17628145502388
H         4.69854798836834   -0.81713764430003    1.63459940008392
H         2.95722366903211   -1.10792937133826    1.68265763040481
H         3.89777172225791   -1.14128503773080    3.17735635721135
H         4.57605924326666    2.50604749362229    3.36695101231658
H         5.66001168949589    1.28277750717886    2.67892667116974
H         4.77871115879826    0.95036306466239    4.16563116420780
H         3.93132317984114    5.74614572643307   -0.04406691760867
H         5.60877583646417    6.14174560730315   -0.42962169698264
H         5.24540839436007    5.01128023356934    0.87078051427300
H         4.67798670542392    4.00184637970387   -3.27883955285736
H         5.37613758040799    5.53626584453203   -2.77312154843163
H         3.66104908031218    5.23645323012612   -2.51635355226433
H         7.09968143463534    4.35331535292857   -1.52935648767580
H         6.41434009088875    2.76833222360810   -1.89968270323085
H         6.71142684951377    3.23302029043929   -0.22670624395975
O        -1.59596180532239    0.27358663847252   -1.64484642567391
O         0.56120175370628   -1.51905551820807   -1.64490617531403
O        -0.83450786216940    1.23476908102100    0.41483951906661
O        -0.65198607049526   -1.34011260874285    0.41488239406258
C        -2.52942318275017    0.92241535674553   -1.03787486615865
C         0.46590496500258   -2.65183545700187   -1.03789991266778
C        -2.09376962041234    1.45532138016836    0.22167482371667
C        -0.21346436968653   -2.54096349682383    0.22166704848660
C        -3.82314867201606    1.18329560442187   -1.49862553978199
C         0.88684479221370   -3.90269846860367   -1.49857789465065
C        -2.98572151463965    2.17868756765623    1.03975833686934
C        -0.39405709762890   -3.67508747288493    1.03973996385716
C        -4.69434505203539    1.90755971368472   -0.70572817914310
H        -4.10624141923535    0.78372674580059   -2.45734186701337
C         0.69513792685850   -5.01928246844709   -0.70566856632278
H         1.37446800249429   -3.94811512033981   -2.45727294745043
C        -4.25891388407850    2.37867528540512    0.54501272620207
C        -2.51091089955528    2.64686710989870    2.40489827439288
C         0.06930327695772   -4.87772062697812    0.54501398662408
C        -1.03699995339433   -3.49793602124015    2.40483178033483
C        -6.12178759315605    2.21220498235113   -1.13603956949689
C         1.14496550070134   -6.40782476257559   -1.13600233733854
H        -4.96219642206509    2.92577286130190    1.14885437018895
C        -2.05023000384047    1.41819828369002    3.20172767637633
C        -1.33026051917006    3.60855085567155    2.21142608880883
C        -3.60661015078147    3.36413509078740    3.19678676721339
H        -0.05291966694562   -5.76031307915197    1.14886208798500
C        -0.20323756537380   -2.48468131005908    3.20167868043064
C        -2.46012901576729   -2.95626830001545    2.21117443564816
C        -1.11043351277067   -4.80551494246697    3.19664267781704
C        -7.09704287817169    1.60546595526522   -0.11683365658449
C        -6.45607008028662    1.63562457554228   -2.51415531793769
C        -6.31132067458005    3.73469891446941   -1.19755612572889
C         2.15789804498038   -6.94918766193401   -0.11671796834350
C         1.81157214741866   -6.40908749066205   -2.51405056873840
C        -0.07882315358847   -7.33315438571538   -1.19769937884830
H        -1.25753806670158    0.89778402855703    2.67076596922394
H        -2.87978523634153    0.72877138309185    3.34637939110242
H        -1.67286662520373    1.72057435249944    4.17634111573106
H        -1.64145711785386    4.47737435642669    1.63469989031719
H        -0.51895191530169    3.11477585772256    1.68292777619367
H        -0.96042224561510    3.94611443993470    3.17753464994287
H        -4.45830169286661    2.70978500040735    3.36716557247295
H        -3.94095126804864    4.26007701681551    2.67894305108977
H        -3.21235626245022    3.66325261393097    4.16567123177057
H        -0.14881688763742   -1.53797491280192    2.67073574092108
H         0.80857319813284   -2.85841876486871    3.34645826369947
H        -0.65389051371854   -2.30906286868358    4.17623195595682
H        -3.05696664320325   -3.66015030130815    1.63440718401578
H        -2.43805312242984   -2.00676167272247    1.68268472880692
H        -2.93742605481645   -2.80473053973587    3.17725653254534
H        -0.11793781011353   -5.21597061030580    3.36712677294312
H        -1.71917986454843   -5.54301753685767    2.67877316670670
H        -1.56666673906008   -4.61358386580089    4.16548078354310
H        -6.94174553603976    0.53149643481179   -0.04420793722426
H        -8.12308828157123    1.78636978705415   -0.42979645821735
H        -6.96252373110996    2.03695126192493    0.87067276980032
H        -5.80462857965583    2.05062271855870   -3.27884583115898
H        -7.48249556267187    1.88766231593769   -2.77313155687961
H        -6.36502827731419    0.55249216855815   -2.51650097219061
H        -7.31983718171181    3.97196314344775   -1.52933741709656
H        -5.60446730777548    4.17088444308246   -1.89957215112503
H        -6.15550291639920    4.19571839654072   -0.22661037651305
H         3.01041901664732   -6.27786878046225   -0.04398195014562
H         2.51415137800579   -7.92826377009131   -0.42964414985213
H         1.71689932672719   -7.04838519853200    0.87074772652108
H         1.12653854840524   -6.05236278533939   -3.27879801344718
H         2.10651763746744   -7.42402213776230   -2.77302792694525
H         2.70408739639164   -5.78869310403460   -2.51625697639154
H         0.21994641789553   -8.32521896272141   -1.52940820836035
H        -0.80991010470976   -6.93907519021332   -1.89980379142434
H        -0.55608866619919   -7.42867898395779   -0.22680077049712

