64
CSD_code = TCACTC | q = 0 | S = 0 | Stoichiometry = C28H29ClO4PTc | MND = 6
Tc       -7.39967595582016    6.50854649123115   -5.69746903969010
Cl       -5.30221036678173    7.09661450806298   -4.82207957997820
P        -9.54947709837221    5.96773239554845   -6.63420014448493
O        -8.21996139819785    7.48434234426505   -4.18617928209264
O        -7.32363902297107    4.93782706523409   -4.47422138281820
O        -6.50912807250831    5.48248429895177   -7.17244574060073
O        -7.28161980896883    8.10900161821057   -6.89909613622040
C        -8.20505546548705    8.45564905354826   -2.01974378762596
C        -7.90015888420771    7.32477168507221   -2.96798717774393
C        -7.33168413953765    6.15393190924507   -2.46025358561179
C        -7.05258762976014    5.02368296507775   -3.23835605270645
C        -6.46231012865562    3.80857002794119   -2.57178847867645
C        -6.03585523160796    4.66682570184911   -9.34852759604533
C        -6.46048406635884    5.76852742746592   -8.40580192126731
C        -6.74277833768247    7.03425890478135   -8.92799382929009
C        -7.09160464941125    8.14584064904388   -8.14731116214601
C        -7.19365453359664    9.49041966153141   -8.82782562991308
C        -9.82761003349004    4.32040349675594   -7.36534964465169
C        -8.83308019368651    3.35488632805923   -7.26725782237909
C        -9.04128702901527    2.09141426711878   -7.79471344806441
C       -10.24214240202474    1.78546961534119   -8.41255327208179
C       -11.24312314140929    2.74146540910052   -8.49582364169644
C       -11.04132059186310    4.00377571460764   -7.97070906456600
C       -10.08239093118622    7.12514388581881   -7.92577905702572
C       -10.33565020368766    8.43713473239298   -7.52854493153588
C       -10.67112341044021    9.39554636735418   -8.46496655179438
C       -10.73602700151868    9.05782826896466   -9.80851802200150
C       -10.44897942068999    7.76429319014858  -10.21172423569654
C       -10.11568586387001    6.79992880555057   -9.27636955586195
C       -10.95021147908203    5.98939891192834   -5.45942504736833
C       -10.73557447918859    5.36113867475874   -4.23542644028061
C       -11.73943024833378    5.31152629286115   -3.28717305704312
C       -12.97173852909975    5.88658049061337   -3.55474054543581
C       -13.19487438830437    6.50342008697461   -4.77391485122937
C       -12.19142510624079    6.55477272721779   -5.72623542604571
H        -8.86488460943419    9.17094705189151   -2.50348225752199
H        -7.27193214170717    8.95626252218091   -1.76723059419467
H        -8.65996635494395    8.08904421198365   -1.10317529585651
H        -7.14550107007957    6.09850996279776   -1.39918308627191
H        -6.59083498636364    2.93894753261832   -3.21107528153845
H        -6.91381439590579    3.63027233908584   -1.59941359996118
H        -5.39654122703545    3.98208721999567   -2.43241824601213
H        -5.53358433388452    3.88368277414406   -8.78738601991983
H        -5.37478463257779    5.04727943624565  -10.12166184984845
H        -6.91924987189309    4.24230439123701   -9.82433311687188
H        -6.56329497546262    7.19931649399579   -9.97883501481872
H        -7.58318227484894   10.22329987751529   -8.12716246890523
H        -7.84739155678808    9.42499037522534   -9.69388251248147
H        -6.20762801509855    9.80844451821061   -9.16130661414163
H        -7.90180114787886    3.60429623679472   -6.77850484896280
H        -8.26562814434399    1.34322971164763   -7.72259174599936
H       -10.40319632819226    0.80051097214412   -8.82567461412739
H       -12.18360875976868    2.49953183972662   -8.96927303871508
H       -11.82308712557155    4.74864552820259   -8.02782974572825
H       -10.25673121452284    8.69049379656885   -6.47944487122327
H       -10.87614496831351   10.40904714222174   -8.15268835064001
H       -10.99914962074181    9.80636543133979  -10.54148963234604
H       -10.48201155068600    7.50547212562351  -11.26011632386885
H        -9.88133667447405    5.79403258612964   -9.59462664821672
H        -9.77043784605076    4.91382951509563   -4.03490903089333
H       -11.56272706893352    4.82681889837190   -2.33806438517943
H       -13.75678590450817    5.85351738550112   -2.81383886933781
H       -14.15619514085816    6.94864082356515   -4.98588080721485
H       -12.37480881579764    7.04322532710106   -6.67281598783260

