43
CSD_code = TCAMPT | q = 0 | S = 0 | Stoichiometry = C12H26Cl2N2Pt | MND = 4
Pt        0.00002391738326   -0.00017484184393   -0.00028019283333
Cl        1.05079069224458   -1.97985045893223   -0.58974580843650
N         1.38956517559363    1.12882832221479   -1.01411193289280
C         2.75597878991250    1.04412397698537   -0.47213384186173
C         2.72278432653270    1.34166605020835    1.02596891160509
C         4.12459547538801    1.24688304928642    1.61821262790148
C         5.06873502146650    2.21183652589223    0.90688704781821
C         5.10056734759026    1.91956739597505   -0.59016909740001
C         3.69729098955081    2.01695610750737   -1.18403149879898
H         3.10589591215513    0.01666961172565   -0.62488216649380
H         2.05454825076370    0.62209758825474    1.51528855516979
H         2.31881142460246    2.34373103615137    1.18732554393772
H         4.49576244068113    0.22623230513788    1.50605322581326
H         4.09027340558761    1.47682298758035    2.68405278242927
H         4.73005935221645    3.23750089253562    1.06939327697910
H         6.07395518852810    2.12198915225428    1.32186152524931
H         5.49181851172701    0.91349241901696   -0.75498043846083
H         5.76364416337912    2.62419303261365   -1.09535457971500
H         3.32267441578826    3.03707708973820   -1.06148416642818
H         3.73128047700479    1.79338137509633   -2.25353285901607
H         1.05626524217734    2.09773454015475   -0.93986758023011
H         1.39501674079339    0.86572144125383   -2.00414478242914
Cl       -1.05045434702283    1.97927365486588    0.58987386344193
N        -1.38959151930961   -1.12853820292017    1.01428903556333
C        -2.75597410859979   -1.04410341662483    0.47218146394858
H        -1.05621036220427   -2.09742479180427    0.94013254506959
H        -1.39518673690203   -0.86543638689432    2.00432135769084
C        -2.72278538183417   -1.34168617484266   -1.02591984165461
C        -3.69727008195802   -2.01707007613821    1.18392047528446
H        -3.10604424669852   -0.01669725917413    0.62487466997210
C        -4.12457685305250   -1.24680993731619   -1.61821616103262
H        -2.05451720029502   -0.62216426479846   -1.51523633416205
H        -2.31886266946609   -2.34376509251629   -1.18731587450893
C        -5.10058309984757   -1.91963549418186    0.59015287320072
H        -3.32266345678785   -3.03718057389601    1.06122510852235
H        -3.73121913085596   -1.79364598403593    2.25344880282006
C        -5.06877406971097   -2.21174956174747   -0.90693718888742
H        -4.49567564917073   -0.22614302779308   -1.50598047471056
H        -4.09028329543474   -1.47668192773712   -2.68407801811533
H        -5.49177951666093   -0.91356125974667    0.75507123248695
H        -5.76369455228289   -2.62426725053499    1.09529004050621
H        -4.73019412742564   -3.23743372814807   -1.06954277566667
H        -6.07399685555809   -2.12175884280994   -1.32187935169543

