53
CSD_code = TCBPZR | q = 0 | S = 0 | Stoichiometry = C24H16N8S4Zr | MND = 8
C         3.24202846792107    5.02660765299775    5.57375620919434
C         2.60771239218347    0.14936591510696    3.55741464192941
C         3.37697686230728   -1.01536359452349    3.57477808757037
C         4.67589574990706   -0.96096216602248    4.04442953734954
C         5.17213522640789    0.25612844979524    4.48606287509722
C         4.34920446207041    1.36926702236348    4.42165056366717
H         2.97713875402778   -1.94191688670567    3.19721184326629
H         5.28952456664471   -1.84879483624370    4.05992643237268
H         6.17763660720742    0.34350937420952    4.86571237455341
H         4.69770783902083    2.34178461300871    4.75737631826234
N         3.17650953306429    4.03770247384102    4.92535764068154
N         3.09916205649041    1.32874914065398    3.96804814792724
S         3.38821000018722    6.36961012883156    6.39126379218418
Zr        1.91067280817285    3.35179767515936    3.31240816295683
N         3.17675881116016    2.66636483373281    1.69934352264616
N         0.64379478624176    4.03801355738499    1.70002148659467
N         0.64420090285100    2.66506151708282    4.92502741026438
N         3.10001118605016    5.37488806191887    2.65582709178204
N         0.72314713719109    1.32848979740693    2.65556686793755
N         0.72435353667367    5.37541061664523    3.96840881609482
C         1.21568128174912    0.14905764687644    3.06474105615408
C         3.24140625411938    1.67768854637199    1.05035097938222
C         0.57977228324542    5.02672353307520    1.05109929970577
C         0.57860648923111    1.67536879190775    5.57243280787066
C         2.60792588033776    6.55464987794996    3.06464572388567
C         4.34998575760488    5.33438688757175    2.20209904516500
C        -0.52705259186924    1.36848609758796    2.20236072828062
C         1.21602579180578    6.55469884283437    3.55772678199345
C        -0.52567125543322    5.33502577700636    4.42202016828713
C         0.44741870190124   -1.01631828993135    3.04617565405243
S         3.38871681444536    0.33470697788132    0.23311124561353
S         0.43518709012496    6.36902516311913    0.23219252901537
S         0.43215796802373    0.33133939851647    6.38809827697845
C         3.37643129545621    7.71987108794414    3.04497236221587
C         5.17245901017053    6.44778152789522    2.13617778542532
H         4.69894560336634    4.36168536675839    1.86744182993022
C        -1.34908863423012    0.25474205345833    2.13693653358549
H        -0.87647929281736    2.34111314191809    1.86792891850636
C         0.44689671906934    7.71951602867976    3.57508031214478
C        -1.34856498865290    6.44820254907146    4.48611081168423
H        -0.87423567870348    4.36250191781911    4.75771444960542
C        -0.85168779206172   -0.96245978232012    2.57696823724017
H         0.84813305529511   -1.94297551500105    3.42253711737365
C         4.67549696360133    7.66532236096741    2.57569610218127
H         2.97609297919650    8.64712737983385    3.42027085758861
H         6.17807761603296    6.36016203863128    1.75689733528645
H        -2.35481167752130    0.34181633544293    1.75781646667164
C        -0.85213887178548    7.66519245904207    4.04443569289500
H         0.84686759971967    8.64610203759907    3.19774907229584
H        -2.35415085281919    6.36082768933555    4.86553042129366
H        -1.46459785763992   -1.85076824038408    2.56073956016350
H         5.28865455190671    8.55344895911013    2.55893900078315
H        -1.46574189866345    8.55303800676748    4.05971101443209

