56
CSD_code = TCMOFM | q = 1 | S = 0 | Stoichiometry = C15H30MoN3OS6(1+) | MND = 7
C         7.69079079021788    7.15041368907752    5.52984124027716
C        -0.01501679435302    8.14208887052886    8.39627128961568
C         3.89956072893236    5.73500054707189    3.06356456515813
C         2.98720075655444    5.93762590846969    0.84628713084637
C         1.47672404156458    6.08606150916714    0.99581035342106
C         3.69567740013456    3.72752429490784    1.74245838938156
C         5.07729155528349    3.39156907211429    1.19118398460845
C         9.56487932076232    8.36442434130075    4.64691383615750
C         9.32148343097211    9.83626134127564    4.96400168809174
C         9.73534451568785    7.10972289648407    6.79534655432561
C        10.42539832057495    5.77271540155806    6.54736821419031
C         2.38038445658818    6.23394064654499    7.46675773087734
C         1.69258008183597    5.61725306560618    9.68674778672838
C         1.47235766338560    4.10854844134136    9.71228446701184
C         0.09565698403604    6.65483585984503    8.07726367890798
H        10.63320368224742    8.14394656771752    4.63599972301239
H        11.02075435524788    5.50596432797215    7.41511870799010
H         2.72684260909717    5.84446917249252    9.95845991939007
H         1.02326973194441    6.11411207253296   10.39063433073454
H         2.15431742260034    3.61602805758808    9.02406546871812
H         0.45125653810476    3.85970577735401    9.43437527027377
H         1.65999896541590    3.73190258644211   10.71300666156542
H        -0.11714197294874    6.48485724873842    7.01845921354988
H        -0.61060284878750    6.07877327714172    8.67689418434536
H        -1.01833461021987    8.48895507467358    8.16905543834701
H         0.69164588684035    8.71118793422895    7.79686275046766
H         9.14259906788213    8.11980640088177    3.66864291268226
H         0.18714062936078    8.33079273369197    9.44755595035053
H         3.45814339473873    6.92421238826693    0.84453834724296
H         3.23145782052385    5.42764158032233   -0.08663614802166
H         0.98998114143925    5.11391205334711    1.00391422380207
H         1.08527018594145    6.66286070568220    0.16371712260800
H         1.23770519499250    6.60661805260181    1.91984698399511
H         3.54741727668810    3.22435049725320    2.70111925669450
H         2.91750595534057    3.40223835167484    1.05059971248063
H         5.24889501806610    3.89147533247827    0.24122367530126
H         5.15672066101053    2.31955803872069    1.03910556636631
H         8.25494793008481   10.04873098134743    4.97920074891518
H         5.84862182562725    3.69934773275525    1.89294465196591
H         9.78568142861812   10.45409202870180    4.20157089189667
H         9.74407537488959   10.10143722892529    5.92980706796006
H        10.47237805137123    7.89211514067299    6.98247493103702
H         9.07414654697721    7.02913392857609    7.66233432478722
H        11.08041261170608    5.82765401787988    5.68149274274337
H         9.68747951168879    4.99227483550510    6.38136561717089
Mo        4.67992387116421    6.97678725914227    5.63432953458374
N         8.94446553845991    7.50990494157957    5.64484901981885
N         1.43067683686955    6.15968736286643    8.36524454781792
N         3.54537436744864    5.15882061872962    1.93679332311407
O         4.71735819288144    8.42729265685865    6.37399015086441
S         6.69618665344689    7.57817650650634    4.19926824819129
S         6.86358890643956    6.18091626752458    6.67143038847021
S         3.98659108194886    5.70630106313198    7.72787443849860
S         2.14461947348867    6.84662644503334    5.88241091927030
S         3.73874248219434    7.43337966803884    3.30745443936659
S         4.54746995693289    4.85766719905919    4.38470383199989

