74
CSD_code = TCNTRU | q = 0 | S = 0 | Stoichiometry = C36H30Cl3NOP2Ru | MND = 6
Cl        1.88706121649322    1.26580071118709    1.20953807253805
Cl        3.96883194661033    3.64033262219363    0.00057164563652
C         4.67195134504949    2.68615528757785    3.33803180438737
C         5.51849067275830    2.82106657558079    4.43868244895135
C         5.15419093085669    3.63528096739934    5.49249502022753
C         3.95035386441196    4.32326558542794    5.45469701689705
C         3.11171584273284    4.19151369959869    4.36214213874689
C         3.46681668537005    3.37442222849852    3.30159394999538
C         5.31527836975118   -0.05876355804146    2.76814436860464
C         4.63796066451136   -0.37883034826235    3.93831080702313
C         4.68483564454766   -1.67474101769720    4.42349141924399
C         5.39686675520512   -2.64968222905529    3.74537969292601
C         6.06102781634865   -2.33659686778111    2.56866592784719
C         6.01547210935041   -1.04768993946646    2.07497325265365
C         6.95343877988060    2.10580286315538    1.80524877667611
C         7.19947887306022    3.28326105616426    1.10362609178171
C         8.49360624579252    3.74455155225241    0.95718214268033
C         9.54930711458438    3.04317424060536    1.51598505534922
C         9.30613139798582    1.88081554663990    2.22766949920756
C         8.01386768804654    1.40923522574945    2.37565519202561
H         6.45770642036456    2.28468102509469    4.46373352989338
H         5.81007581620330    3.73542977798846    6.34496929209830
H         3.66969652235418    4.96154468444492    6.27961139736662
H         2.17365505096292    4.72518581054871    4.33124815228613
H         2.80308371678965    3.26905582925846    2.45622036419122
H         4.07340758349331    0.38132342487393    4.45918580532211
H         4.15787656276713   -1.92403373982757    5.33259683987609
H         5.42820485299030   -3.65901840156482    4.12789298259662
H         6.60591865551612   -3.09911467019065    2.03240260755669
H         6.52014813395356   -0.79269106646461    1.14875279825584
H         6.37678402694327    3.82955348613836    0.66356911509419
H         8.67852853793666    4.65224120060232    0.40233698652295
H        10.56131048692211    3.40122299165553    1.39708541990942
H        10.12631406049738    1.33361914199089    2.66944745769330
H         7.83606396307387    0.49904557574585    2.93133414010830
N         3.96871793316844   -0.31817945253847    0.00006595438300
O         3.96924159478149   -1.47276050852398    0.00043334706607
P         5.22301405971427    1.58215713816419    2.00414085704476
Ru        3.96857796239529    1.34454234990209    0.00013044950888
Cl        6.05065006315788    1.26513339543418   -1.20931100724209
P         2.71499592778219    1.58216500464965   -2.00382799244046
C         3.26659428166167    2.68608242130357   -3.33754148536303
C         2.62313389252444   -0.05878718458381   -2.76779677277454
C         0.98457063535333    2.10603809505687   -1.80579077931558
C         2.42070123155026    2.82057224648632   -4.43875338916829
C         4.47141255241146    3.37484127385540   -3.30042717998576
C         3.30135758308271   -0.37879074422031   -3.93745503953826
C         1.92244269818432   -1.04776793025175   -2.07520541719085
C         0.73845370392830    3.28367617048634   -1.10447667370099
C        -0.07577678097243    1.40950049348895   -2.37639026611466
C         2.78533647010473    3.63486973909792   -5.49239253232346
H         1.48173747907166    2.28376478322380   -4.46439978555896
C         4.82688689849286    4.19197226224079   -4.36081336310220
H         5.13469619478011    3.26982130092917   -2.45466729566398
C         3.25485366597401   -1.67465467932543   -4.42278808324781
H         3.86640018472437    0.38137313819872   -4.45778185814251
C         1.87715835748676   -2.33660728405539   -2.56911674360730
H         1.41725222156220   -0.79291345837760   -1.14922493567964
C        -0.55567519096630    3.74509640547195   -0.95841371255795
H         1.56108365813582    3.82993519814862   -0.66423484954487
C        -1.36803998180326    1.88121802990936   -2.22880531560515
H         0.10206764486357    0.49916312385033   -2.93182541583478
C         3.98885744190401    4.32336703101203   -5.45387297095991
H         2.12994598780234    3.73475783747130   -6.34528042278807
H         5.76470780553866    4.72601622103675   -4.32935946781411
C         2.54221795940083   -2.64961588286221   -3.74534331731074
H         3.78257608984024   -1.92389225020565   -5.33146428052103
H         1.33183957346977   -3.09917856203420   -2.03336661961327
C        -1.61130323036124    3.04367162193551   -1.51730454748779
H        -0.74069598468828    4.65290000220487   -0.40378226151514
H        -2.18818806942959    1.33403001362744   -2.67066900866531
H         4.26973449138840    4.96180923433416   -6.27857571700838
H         2.51101117541677   -3.65887852068407   -4.12805849850361
H        -2.62330653486440    3.40183265438709   -1.39872481448043

