33
CSD_code = TCYPMO | q = 0 | S = 0 | Stoichiometry = C15H15MoNO | MND = 12
C         5.59718263894533    2.74155780465416    3.69668768306943
C         4.49744817898016   -0.12385871444973    1.17522835455828
C         2.19024781329808    1.65081347185377    2.29357747632127
C         2.41318493979708    0.62060703166313    3.31430323577801
C         1.71349993957588   -0.55095861143849    2.77299347532109
C         1.19637011083940   -0.25129153129642    1.56072534016333
C         1.49284611269197    1.12273238893992    1.26252114602187
C         6.64594805495949    1.93548568649212    4.05523804552230
C         6.18222985974671    1.00527592624689    5.04416078405296
C         4.87483613984820    1.40855691226018    5.42666871338781
C         4.46527604251019    2.37719839304995    4.48894131435191
C         5.72213320308527    0.55899781311054    1.32853141100308
C         6.57699924774727   -0.25316026028338    2.07332604270921
C         5.89415989699296   -1.45969246394877    2.38709838801914
C         4.61746986334374   -1.39924324570057    1.78056005915589
H         5.61061481297821    3.53455319651816    2.96696882371763
H         3.69336548214280    0.17665619935974    0.51899231397026
H         2.51474292459927    2.67520189918799    2.37736648779519
H         2.07273805192550    0.89546697070636    4.31627281742451
H         1.60793713288147   -1.47875925898276    3.31126764938005
H         0.64526889801749   -0.90914637505812    0.91153710304787
H         1.19613267577089    1.62850430880188    0.35945909722734
H         7.65127638275306    1.98044972874171    3.66848054925982
H         6.83898338645009    0.40771180073447    5.66444767575740
H         4.36813644902623    1.15212286088034    6.35241056509020
H         3.57009142234877    2.97866754639464    4.57792935269152
H         5.97427487797714    1.50824802246081    0.87918494638558
H         7.62215048637580   -0.06794541449097    2.27726635088615
H         6.35732740826069   -2.35184941682770    2.78924874414224
H         3.93632975543168   -2.23129384429312    1.65026445519443
Mo        4.59045364415225    0.07741974077886    3.56972565262485
N         3.99233912261033   -1.08082124070037    4.70883894456127
O         3.60450504393636   -1.91850732536475    5.44407700140803

