75
CSD_code = TEBDIP | q = 0 | S = 0 | Stoichiometry = C28H36F2N4O4Zn | MND = 4
C        14.33424845431956    0.39203783121737    8.58024851738367
C        14.41336360797370    1.46205620786926    9.52524278232538
C        15.54342507592221    1.48842993431116   10.38745242927789
H        15.58722288470459    2.28978854962244   11.10862496206216
C        16.54100514643526    0.55615927246576   10.31495622830138
H        17.39623978512368    0.59230387328677   10.97153005049504
C        16.44512559705659   -0.46549725257807    9.36833251617345
C        15.37274445554401   -0.55979349842418    8.52763019463365
H        15.32182160824670   -1.37041310166082    7.81616306829980
C        13.22999511218522    0.19251473944601    7.70523667967994
H        13.26212843732154   -0.73714033366311    7.12509828071985
C        11.13977195414039    0.53727374402150    6.68764613590147
H        10.33733273011583    0.14854502207911    7.32588289446768
H        11.47345413639941   -0.27219549635775    6.02381461525253
C        10.58750571280768    1.70408214233837    5.87651301219942
H        11.35179708616961    2.08444619927631    5.19747439081183
H        10.32043308514445    2.50226565044736    6.56714773829105
C         9.35042773885159    1.30989861438757    5.06850497316510
H         9.64480332450355    0.60951545388243    4.28241364780582
H         8.62761505508291    0.79504210689428    5.72444397088980
C         7.89951885053828    3.22588361245439    5.34362655991229
H         8.44511566747668    3.47535194470323    6.25396946692448
H         7.00685841426212    2.63587756708077    5.61942929256126
C         7.45233131736598    4.51359326342826    4.65347899195585
H         6.76347616979790    5.07405279679016    5.28689436816465
H         8.33923001673556    5.12956606481665    4.44016446056855
C         7.56555740307524    3.48424659026913    2.58554296305139
H         8.45638939514253    4.06503975848717    2.30176767566324
H         6.95903197149217    3.29038107813181    1.69927843112490
C         8.01641528551783    2.17260549530515    3.23067978092569
H         7.12863888439252    1.55148837073243    3.44450375317978
H         8.66578245414009    1.63408824855968    2.53732630347070
C         9.95946442586185    4.99515987341902    8.00628651857733
C         9.64189404578455    3.91876451032532    8.89370567224956
C         8.33085783655052    3.89152952103153    9.44442832649505
H         8.10298708903409    3.07986940744975   10.11751497797867
C         7.39164781199244    4.83690025986538    9.14192604156579
H         6.39860822570729    4.80152286865617    9.56210192753064
C         7.72982646414760    5.87378948492564    8.26863959375757
C         8.97564934394431    5.96524770534677    7.71825734703225
H         9.20622230275642    6.78159614981846    7.05059174327836
C        11.22431532030521    5.15774961142651    7.37935814506886
H        11.31727998222569    6.06213634929505    6.76817420758681
C        13.41739161196005    4.75757367607157    6.68458795497346
H        13.77283309078797    5.73283783901380    7.04052674206684
H        13.14491403370264    4.86567928065971    5.62651828878629
C        14.53151993861203    3.73131946683376    6.82750046380129
H        14.18409668944688    2.76201544051995    6.46593586251285
H        14.77670439657888    3.63983485038273    7.88403924841591
C        15.77470622289355    4.12446669376755    6.03014308788691
H        15.46798121793136    4.42104921631365    5.02216834284718
H        16.26354994143737    4.99544398943638    6.50318534901523
C        17.33847028042053    2.63356277334415    7.13103674045397
H        16.58223250762410    2.38982425842907    7.87700402411586
H        17.96767633037370    3.45733546108241    7.51358970744868
C        18.21373748020283    1.40309003729481    6.89330706699607
H        18.75594858900456    1.13401290878636    7.80064669579791
H        17.57164320738465    0.56303512562248    6.58941350980747
C        18.57049729440164    2.02150669881884    4.69844930163187
H        17.93679661925388    1.20080717186013    4.32944118107217
H        19.37574995525564    2.20926337543230    3.98609399076658
C        17.70842674707467    3.27060191199910    4.88016206902828
H        18.35598672206078    4.11592574173485    5.17421327590495
H        17.22086558637952    3.51509179497560    3.93376902214961
F        17.43944975925796   -1.38073540645301    9.29079485275969
F         6.79378942066486    6.80280653785918    7.96330803116077
N        12.21384538213486    0.96708229353251    7.55272803121913
N         8.76145978721324    2.47962253343173    4.44028954228606
N        12.24114254641072    4.36718386893389    7.44179032991621
N        16.68893896052971    3.00646080946424    5.88332188383122
O        13.53809327586428    2.39800847307143    9.63891921832479
O         6.76144446657262    4.24020989757088    3.45800643074260
O        10.45801121308770    2.97823846161347    9.20828330770263
O        19.18636033691914    1.64341946736926    5.90478492392257
Zn       12.12857672273698    2.69646516036549    8.50953788574780

