62
CSD_code = TEBFAI | q = 0 | S = 0 | Stoichiometry = C28H24CdN2O7 | MND = 7
Cd        1.23362132009066    9.10912284521367    5.30437366797062
O         2.18849048719826    7.33823772457373    4.71305964651522
O         3.39964182770633    8.30151952840914    6.28145245706770
O         9.42815611426525    4.43195435019182    7.86441055520625
H         9.33547440595250    5.22124275708699    8.41145010568008
O         0.43397112399740    9.81760294621505    3.37296997464040
O        -0.82779991876062    8.75849649481668    4.82964052138269
O        -7.83344422074935    8.39917194796832    2.77898672177797
H        -7.63531376795928    7.82414465063254    3.52813487240946
O         1.17135724580135    8.84546757690544    7.71304332561838
N        -0.00379185032124   11.21017319107228    6.19730243527557
N         2.46353954176245   11.08740021631847    5.13642178082992
C         3.20124786498480    7.37454415704606    5.45828347059345
C         4.17770138580996    6.26464810237815    5.33391216211039
H         3.92455695012525    5.52259721993911    4.59309083805711
C         5.27411586513096    6.20710255091643    6.09489418535123
H         5.42020369651130    7.01091615128624    6.80779590722886
C         6.30163830632895    5.18153639883597    6.07953206672594
C         7.36971441785253    5.29341225349842    6.97190795303132
H         7.40876283362811    6.13585236193236    7.65163505979127
C         8.37821460099385    4.34288126636334    7.00258845314133
C         8.33186326324060    3.25795931117330    6.13167590069868
H         9.12333525382354    2.52684815012059    6.16715840668526
C         7.27725704172966    3.14181466226546    5.24541915892950
H         7.24313165660588    2.29916515722704    4.57100489696883
C         6.27017826385736    4.08755615348545    5.21311039260738
H         5.45691027281056    3.97828231666663    4.51460266487627
C        -0.67930200934974    9.36740191007902    3.74111954237464
C        -1.86225142351211    9.63317256818010    2.88758378767070
H        -1.65300390443246   10.14098847708522    1.95858864576024
C        -3.08844314519579    9.27788379305591    3.27859412422628
H        -3.16377431486245    8.74792963823938    4.22082242186369
C        -4.33517565535226    9.50863309871168    2.57132268737504
C        -5.48571182644955    8.85378396484174    3.01384001947486
H        -5.42170183136104    8.18585779746709    3.86366590634719
C        -6.70125677165240    9.03303351159450    2.37141907486612
C        -6.78430202413706    9.89009558382446    1.27720559695883
H        -7.73692420409513   10.02235896059209    0.79020907157001
C        -5.65030906603913   10.54948970506707    0.84103691578524
H        -5.71844907481412   11.21529981163756   -0.00652283788588
C        -4.43554475407046   10.36549204018661    1.47418935838296
H        -3.56224427625983   10.89182731018802    1.12403099846003
C        -1.27100784756492   11.02333282591851    6.52821545783142
H        -1.44383603562109   10.34307602587228    7.35174297556339
C        -2.32429408946107   11.64174982174381    5.87091602684282
H        -3.34391495001420   11.44812773549102    6.16311023818115
C        -2.03327569119329   12.49252770378396    4.81676543579585
H        -2.82608886858779   12.97350038541550    4.26274929969975
C        -0.70921778145950   12.70857429431676    4.47581775399348
H        -0.45240061103512   13.34545054218959    3.64433190606219
C         0.28168812902031   12.03773993642403    5.18976065600935
C         1.71303890846966   12.15561686323294    4.85660164694244
C         2.26039146433633   13.30628653276203    4.29276219839445
H         1.64291646958897   14.17042981031184    4.10400493058865
C         3.61224857226186   13.32888025646440    3.99533276148063
H         4.05915857829262   14.20663598381004    3.55190764794859
C         4.37885079113298   12.21029066548436    4.27975459657193
H         5.43453045428915   12.18762969850675    4.06077742797822
C         3.75597357814201   11.11275922421170    4.85647968542514
H         4.30884849271678   10.21949200096486    5.11821708063462
H         1.27211849831798    9.75072977071673    8.02793790519438
H         2.07843223744575    8.53147130916106    7.53105147442161

