73
CSD_code = TEBKUG | q = 0 | S = 0 | Stoichiometry = C26H36Cl2N6O2Pd | MND = 4
Pd       -1.34390514506779    6.36786467132328    5.44641071501565
Cl       -1.45469366702860    8.19230983488283    6.81288429507978
O         3.49984737413157    7.46839280400744    6.86426710512743
N         0.44776000847927    6.12830523942895    6.05807309628600
N         2.41301639837238    6.86222980691460    6.79449428625623
N         2.01163584251727    9.19591319080094    5.17464381342529
C         2.05248974118503   10.16194516734659    4.27513159419376
C         1.50206947664417   10.00366955262898    3.00130346008567
C         0.90835509380712    8.79857062490437    2.67150474836917
C         0.85922298323699    7.78496964248737    3.61819076874884
C         1.43077953877009    8.04422884306787    4.86759421895320
C         2.71278611763457   11.43559397498961    4.69109392525354
C         1.42726326759543    7.00972529398275    5.90147872825780
C         0.89834390123900    5.11574325909176    7.01378334304044
C         1.98727759109592    5.87728941574068    7.81536786246803
C         1.49011709880070    3.95452987528707    6.19648881989751
C        -0.27897570578301    4.60321339322846    7.83825818853779
C         1.40909780146635    6.70951692472707    8.96616706793919
C         3.17944016802566    5.07049801102902    8.30121843195007
H         1.55225102853738   10.81058630431891    2.28616847168794
H         0.49439235236521    8.64414060245411    1.68522946997179
H         0.45546394787523    6.80306022703139    3.38150247152608
H         1.96368618692687   12.21511251665882    4.82770742273522
H         3.23244838049185   11.27791176801467    5.63137695268142
H         3.41673920039197   11.76918482283614    3.93122211984662
H         0.73958323702970    3.59729501716357    5.49361510546335
H         1.77811435302780    3.13551835016981    6.84899546625713
H         2.35402751466230    4.28609175832634    5.62403123955237
H         0.07052345001813    3.90676491469846    8.59704983693972
H        -0.96915643050506    4.07392287267326    7.17253377389920
H        -0.80197307517843    5.42785113177784    8.32344366773667
H         1.10887961661794    6.06944765403582    9.79100067120996
H         0.55542205603129    7.29610169814641    8.63010984411453
H         2.17458435662940    7.39797664371493    9.31876178905023
H         3.68264864333402    4.56280495058095    7.48404024668931
H         2.85982019737976    4.33710493573305    9.03643585886060
H         3.89424662135969    5.74712238526911    8.76384278124194
Cl       -1.23287296390238    4.54395728656334    4.07942562702712
N        -3.13540027417721    6.60776742522924    4.83446811470378
C        -4.11480549494179    5.72617318714576    4.99076735402657
N        -5.10029791531172    5.87348135254491    4.09743677090637
O        -6.18698584937101    5.26711276818087    4.02730103401671
C        -4.67447355277689    6.85860153499361    3.07677480501624
C        -3.58600344592447    7.62036058827203    3.87878468909639
C        -4.17836510213694    8.78123790192019    4.69614374910201
H        -3.42809352873566    9.13857693990449    5.39924843436460
H        -4.46652666472361    9.60030005439061    4.04376890631765
H        -5.04227232753131    8.44923567160364    5.26834984188067
C        -2.40868243489263    8.13345999856922    3.05468699326563
H        -2.75825649830283    8.83008433667572    2.29608625405675
H        -1.71873303622593    8.66269365840872    3.72069709035230
H        -1.88542340380236    7.30911657256738    2.56929391215154
C        -4.09567082158233    6.02662019463231    1.92610834230319
H        -3.79530617609946    6.66685044163021    1.10145172539157
H        -3.24196990270137    5.44021836329073    2.26243009173913
H        -4.86084866803658    5.33800159655230    1.57315665576219
C        -5.86670833113528    7.66509659172702    2.59061219176673
H        -6.37031476708890    8.17258966435860    3.40767167212187
H        -5.54708105778429    8.39862661363477    1.85553769525083
H        -6.58117690671115    6.98829462937918    2.12772609418228
C        -4.11844176408205    4.69172740454394    6.02469646594510
N        -4.69917473076746    3.53999189315285    5.71764323431297
C        -4.74007088204761    2.57400398644699    6.61719848283424
C        -4.18987076582397    2.73240788263262    7.89110845801004
C        -3.59624608868053    3.93754675275357    8.22090090603163
C        -3.54702753537790    4.95107842801919    7.27415106770940
H        -3.14326541505182    5.93299096347959    7.51079570226937
H        -3.18242502601456    4.09205411529156    9.20722187233726
H        -4.24017741649881    1.92555576546705    8.60631179083586
C        -5.40021078957725    1.30023006970409    6.20122407332938
H        -4.65108868398072    0.52062443447537    6.06561615038952
H        -5.91902478108906    1.45764549341586    5.26043981241034
H        -6.10483651922569    0.96717735896594    6.96064228043856

