45
CSD_code = TEBKOC | q = -1 | S = 0 | Stoichiometry = C19H18FeN3O4(1-) | MND = 5
Fe       -4.05677571325824    8.12567125546209   12.78311169418150
O        -4.07672185959027    9.02931857508867   14.48033477444072
O        -5.79629995489358    8.79870588260899   12.32261875222214
O        -0.94896554372972    9.80592025676784   17.09155167389600
O        -7.76412539118937    8.75488469734893    8.66577172024869
N        -2.25493065871885    7.59333905336544   13.04975088979234
N        -3.86435883818026    7.34660976353866   11.06126535064500
N        -5.05337941573723    5.50743905521542   13.88274717797494
C        -3.17452698764275    9.18846789414060   15.33526398749522
C        -1.82205970016858    8.71979848755678   15.16846904432883
C        -1.46054702250956    7.97402413887451   14.02893684091968
H        -0.40854551888235    7.72282434289718   13.93669916424262
C        -1.78321634165948    6.78133708566475   12.02588232439405
C        -0.57881559022141    6.08072910759111   12.01436104059802
H         0.09591938613212    6.13139850233200   12.85609308190408
C        -0.23756966725279    5.27810667663104   10.94095045361484
H         0.70000890006785    4.73974982815318   10.95142474319132
C        -1.10467728951269    5.14364154158034    9.86987977534269
H        -0.84684505497470    4.49980014325532    9.04041018085398
C        -2.31608720026555    5.81095907887603    9.86789627315108
H        -2.99014487610221    5.65204552083175    9.03926732910174
C        -2.67373254530436    6.64297919584902   10.92706483497446
C        -4.70014293510463    7.45826857940652   10.04958993505574
H        -4.37195107915712    7.06744392028877    9.09169745756881
C        -5.96181693641987    8.08538082656514   10.06079013852232
C        -6.44719141034154    8.73078226687600   11.25352756205672
C        -3.57679905494440    9.93148245448725   16.58632457860948
H        -4.65017120742692   10.10572397788187   16.54786119368210
H        -3.04665205789841   10.87854446925807   16.65567647608088
H        -3.32308858605208    9.35339994725524   17.47100094130238
C        -7.80486339885119    9.39096642909744   11.26726893174764
H        -8.00133813425350    9.74390113688070   12.27765775628717
H        -8.57419966473123    8.68684319025864   10.96130236122543
H        -7.83228889259059   10.22364966797288   10.56822476530805
C        -0.80261979435705    9.02892642585955   16.15193109544036
C         0.55570829701804    8.33662298596759   16.02342870126819
H         1.13788067415789    8.58184086243690   16.90979360377545
H         1.09500077870237    8.69641976253605   15.14890169694958
H         0.44126303471543    7.25747661439652   15.95926902098821
C        -6.74805715417050    8.08851027160947    8.84212925730723
C        -6.29296930765797    7.18934083126794    7.69115134480230
H        -7.07412912920331    7.19965530800182    6.93326738069329
H        -6.13634191914417    6.16824935395932    8.02937754722794
H        -5.37595663905505    7.56704941382668    7.24208142326916
C        -4.68717859963957    6.52157122028226   13.47319572331753

