54
CSD_code = TEBLAP | q = -1 | S = 0 | Stoichiometry = C21H22FeN3O6S(1-) | MND = 5
Fe        8.09327977405173    1.34619606145646   23.39975577789988
S        11.57533070682223   -1.54812526363068   24.21777847615964
O         8.84705438845421    2.67935136009119   22.20370703460685
O         8.13037103015413    2.57812881445964   24.90332688462134
O         6.33696987786335    2.14027462181166   28.66811056591798
O         5.63921990414267    0.10537840878006   28.05953647892241
O         9.04839352753530    2.59911261930540   18.02348620210111
O         8.18828757912647    0.52779944478836   18.05429075098063
N         7.80611318715237    0.15151224116669   21.94840178949832
N         7.15935311223610    0.05063452796244   24.43494719075573
N         9.76974252851867    0.50399824983957   23.80833473725748
C         8.98974389247194    2.65947561984692   20.96118777359508
C         8.54728362205333    1.57807462361288   20.12914428673184
C         7.98847898860011    0.40651522523169   20.67565790760814
H         7.67015766844955   -0.33134987503778   19.94470699414747
C         7.34698653274123   -1.08787353221637   22.37545910666389
C         7.26596909919999   -2.24513071912574   21.60356401039988
H         7.57538783586443   -2.23507971768411   20.56945762391106
C         6.82364460796667   -3.43083022600003   22.15917160381357
H         6.77375140459639   -4.32192710762664   21.54953381905655
C         6.47336713288304   -3.48535807142184   23.49848437518073
H         6.14923123115681   -4.41908196110477   23.93592837973466
C         6.56470037365421   -2.35491782438932   24.28842827031027
H         6.32770169092316   -2.43107633880567   25.33876448362927
C         6.99053649088143   -1.14387757296794   23.74627442025471
C         6.71333513400898    0.19830597015764   25.65865624397525
H         6.11396395541416   -0.59539733790127   26.09530332962368
C         6.90893660348651    1.31673781634342   26.49138758788437
C         7.65562295792254    2.46042835488418   26.05463718586568
C         7.87590106226862    3.62278929060759   26.99200552054547
H         8.39607628843546    3.28915396237438   27.88588514782107
H         6.92601192329438    4.04509685080525   27.31014810805950
H         8.46815170990464    4.37368870781711   26.47433471590262
C         6.31006706964858    1.27491763620069   27.81203939581171
C         5.03706341624110    0.00785820952660   29.33910086419356
H         4.31369971020366    0.82425054960232   29.46240859732283
H         5.80737248257936    0.12594556826416   30.11139486996717
C         4.35872087262412   -1.34699980088904   29.44420811652511
H         3.60039046007458   -1.44488947280733   28.67149177737145
H         3.89092069740486   -1.45150903982486   30.41971456424198
H         5.09117727738485   -2.13897641936645   29.31211679121810
C         9.63912082482544    3.87408849267007   20.34321317216656
H         9.92631153195430    4.55288639726684   21.14278784283741
H         8.95424000967208    4.36831615832412   19.65855557071266
H        10.51449992055110    3.58151099940158   19.76977208173440
C         8.63848748091459    1.66284706673702   18.68445774846410
C         8.21655492973842    0.54668517824765   16.63824145492456
H         8.24427009092044   -0.50418224903464   16.33670895241660
H         9.12855697034676    1.05353745148204   16.30257059607520
C         6.99355569481129    1.24727438586917   16.05657860566643
H         6.08303757842884    0.78064818421376   16.42613624468655
H         7.01309194961074    1.18623842941393   14.97127310964750
H         7.00024766604298    2.29255072100727   16.35462202023560
C        10.51155754379193   -0.38942566974208   23.97211084034266

