34
CSD_code = TEBPUL | q = 0 | S = 0 | Stoichiometry = C15H15O3Re | MND = 8
Re        0.00929348427665    0.01348452676400    4.37366252008996
O        -1.14613445317407   -0.43355443269300    7.20158889641158
O        -1.99715930894827    2.25613046932295    3.67378122499866
O        -1.67180104429786   -2.23652615888402    3.08763723357850
C        -0.76420770098758   -0.26708577861886    6.13454158192625
C        -1.29850602253764    1.38967390449220    3.95293436832023
C        -1.09434304282861   -1.38009798882340    3.58494975537763
C         2.27100845889328   -0.87027628085626    1.53849216834525
C         1.43781533885425   -0.12733097733210    0.45448307584127
C         2.41800172485932    1.05522335318840    0.67060514815359
C         2.02077720263502    1.92513358827636    1.87235570431934
C         3.46695407493806    0.01879905426238    1.11150099079665
C         1.61311374088707   -0.77577146060608   -0.91870781865912
C        -0.05357488906956    0.09946467513591    0.65412436421156
C         1.95684451352019   -0.37163647595044    2.90879115139083
C         1.87336356717413    1.03605490687234    3.07604158449070
C         1.96614640617372    1.32059362628615    4.46993505597715
C         2.16135148586225    0.08577410025262    5.15355131032885
C         2.11710277844188   -0.96754947331124    4.19604981789349
H         2.35797959672089   -1.95506762618098    1.46684843294894
H         2.64836164371037    1.67386440366044   -0.19786121081023
H         1.10789690701281    2.48483392574308    1.64860243884230
H         2.80854380505826    2.66123319183553    2.06830331108200
H         4.15200138031245    0.32027808319944    1.90417281410378
H         4.04188752656525   -0.39050217200980    0.28625561583960
H         1.03487956985909   -1.69668307853172   -0.96716820785207
H         2.64856912481418   -1.01571491885557   -1.13952313782454
H         1.24883035120894   -0.10448349369516   -1.69429187367956
H        -0.44157451522816    0.69872117767096   -0.16746256321348
H        -0.29840448779815    0.61460722028482    1.57978987303066
H        -0.57663881195578   -0.85527806620096    0.65497471662349
H         2.10413810126191    2.30223997825889    4.90054270630231
H         2.44143078082211   -0.01961159744710    6.19295639909573
H         2.40365271296390   -1.99364020550680    4.37734255171839

