121
CSD_code = TEBPUM | q = 0 | S = 0 | Stoichiometry = C49H65N4OPRu | MND = 6
Ru        3.63505805189173    0.34725426074740    3.17493099126754
P         3.09892530682105    0.40437712733026    5.40245411324131
O         1.84933449964016    2.52546710235319    2.16300497938689
N         5.47787783556403    2.85090708984488    3.49679502718852
N         6.62691143918718    1.17324514916571    2.78284542483821
N         4.44642679756657    0.47100671644752    0.13801812148303
N         4.11937801812113   -1.55385773180030    0.80026764075809
C         2.57000006846503    1.70087270608698    2.56166314834369
C         5.37626434213191    1.51903911874269    3.21052160385682
C         6.74379987082624    3.31153807272902    3.23612100792681
H         7.03378423999831    4.33207212453807    3.37565064730338
C         7.46448444197513    2.26107806829756    2.79787248737587
H         8.49160260213191    2.21149306522370    2.50128047496148
C         4.46124311505960    3.69339028256988    4.09125107777942
H         3.59675282080497    3.04871755703240    4.29798347427549
C         4.94522572022057    4.28972301812876    5.41629606710174
H         5.21849938108291    3.48221358382242    6.09987448707584
H         5.83095824907545    4.90725326727910    5.24777449514955
C         3.84759633875517    5.14643330212621    6.03943536409001
H         2.98928968916214    4.51545516714753    6.27321564425460
H         4.21018823148082    5.57957149732998    6.97411184084093
C         3.41049777651197    6.25091797742985    5.08324957612903
H         4.24985515243197    6.92412881400733    4.88914829874844
H         2.61012866528726    6.83709351734411    5.53827705912988
C         2.92928847869048    5.64574257803729    3.76953139318498
H         2.62477735245114    6.43554234522829    3.07962961115302
H         2.06244748228594    5.00863509209147    3.95688460125462
C         4.03278387725042    4.80736899146646    3.13429940100149
H         4.88946268508407    5.44485913092290    2.89721231885260
H         3.66772413799914    4.36694092835417    2.20534167992474
C         7.11346820100883   -0.16424252990913    2.51072971543136
H         6.23332217370215   -0.81482102331862    2.49093041302745
C         8.03530336948389   -0.63040310568498    3.64315714884370
H         7.49089941640523   -0.58149673889540    4.58842549216203
H         8.90266750207876    0.03183169703581    3.71297989056028
C         8.49961342502024   -2.06040938724567    3.38889692736747
H         9.17015083871197   -2.37661923434596    4.19046940805561
H         7.63242545976455   -2.72410670780754    3.39936359956191
C         9.20933696992420   -2.16794237459236    2.04291047775446
H         9.51161423751993   -3.20148356143738    1.86328259356982
H        10.11366537892141   -1.55440224425416    2.05939141009731
C         8.29557489265290   -1.69192709720160    0.91812334354726
H         7.42127652283455   -2.34262865203633    0.85659812922574
H         8.81985661242113   -1.74772880094533   -0.03838515576069
C         7.83681723270159   -0.25817799033981    1.16636170801522
H         8.70944963060000    0.39960913221603    1.15906883101594
H         7.16694724764987    0.05441915920731    0.36371049552915
C         4.08901840340599   -0.26324948595855    1.23267083294390
C         4.68479920425705   -0.35055706178642   -0.93703107517434
H         4.97576177282406    0.01806104166582   -1.89871019322053
C         4.48195560652188   -1.61590136821382   -0.51892428571150
H         4.56792495138959   -2.53757176903790   -1.05591031362825
C         4.41435218917769    1.91326720925071    0.01371486985418
H         4.25129628734854    2.30869424536494    1.02171314119290
C         5.72581822238420    2.48758993160925   -0.52542379228233
H         6.55121532108548    2.20066803605241    0.12833218783521
H         5.92788698899154    2.09390612272522   -1.52411273986619
C         5.63329243223728    4.00937203781123   -0.59469581711682
H         5.48958676583011    4.40582838561552    0.41253829179382
H         6.56970383455771    4.41545499017872   -0.98342041839868
C         4.46942873435899    4.43939508852904   -1.48218026505508
H         4.64606620642454    4.09232783226733   -2.50336260729804
H         4.40540518928734    5.52889497000629   -1.50702591206936
C         3.15811781306631    3.85395179270280   -0.96801010650159
H         2.93675530912462    4.25818410918168    0.02147864917946
H         2.33825448529493    4.13636223810233   -1.63092703469060
C         3.24263625011990    2.33425216253289   -0.87999194964585
H         3.37519019599984    1.91435832076234   -1.88035014636447
H         2.31719830790585    1.93256022512232   -0.46307932491924
C         3.70938655514368   -2.72312701270753    1.55040595753211
H         3.52746747280557   -2.37595052256293    2.57207257440107
C         4.78758239525749   -3.80444216773398    1.58329915385540
H         5.71443740056230   -3.38364779942020    1.97893266683913
H         4.98623832693758   -4.18549569301850    0.57806151216787
C         4.31662084193153   -4.94788879741249    2.47752254630131
H         5.07975160471103   -5.72881862309809    2.51515060898758
H         4.16958686394642   -4.56683553074563    3.48988371848621
C         3.00212130556224   -5.52494229259589    1.96151261817461
H         2.66768597880666   -6.32932882961783    2.61949736400637
H         3.15805701935515   -5.95108269352014    0.96688475449583
C         1.93387045669973   -4.43787923158375    1.88765349719888
H         1.73603143399857   -4.05169852576680    2.88978851809699
H         1.00370681289911   -4.85507523963877    1.49652758911727
C         2.39969224202889   -3.28864642738037    0.99954502582027
H         2.53935815087955   -3.64281387133355   -0.02561405828569
H         1.65030320748436   -2.49489225460331    0.99096732782213
C         2.01162976771795    1.68152502675703    6.16100288112946
C         2.20127763592190    2.26438606020667    7.40805354900769
H         3.04147049590708    1.97873220669640    8.02395914357550
C         1.31643384049537    3.22580779566575    7.86947379637343
H         1.47385270070221    3.67233863027717    8.84125304073692
C         0.24142048614022    3.62163063699387    7.09241966457180
H        -0.44195097201973    4.37520678400357    7.45622033665749
C         0.05000183626908    3.05213216920870    5.84306272671560
H        -0.78430330068750    3.35951182294549    5.22881155373021
C         0.93047417362116    2.09198686209455    5.38281428733776
H         0.79473714241733    1.64225262676865    4.40659447393403
C         4.37470869462339    0.26723622439205    6.72053398505062
C         4.08428179408743   -0.27810664479797    7.96926787900950
H         3.08530396042786   -0.63660963476809    8.17869836833310
C         5.06715767917297   -0.36571227964103    8.93784703470198
H         4.83307262323946   -0.79250144391449    9.90292930925050
C         6.34973195640231    0.09052382192947    8.67655291607317
H         7.11535570670826    0.01823717868774    9.43555271724964
C         6.64707200971644    0.63312555827465    7.43828605697373
H         7.64691794147882    0.98727157715298    7.22694969134579
C         5.66289485298575    0.71778835142135    6.46912634413826
H         5.88828471778136    1.12068764101753    5.49118618318515
C         2.14376192593429   -1.10285314052350    5.84041835795271
C         0.77140062215575   -1.11476951390641    6.05289366603589
H         0.21225987018802   -0.18991413728856    6.05415092125474
C         0.10742417714197   -2.31245450003051    6.26034543703779
H        -0.96133302339761   -2.30927087759846    6.42226836549415
C         0.80190659392416   -3.50884140751745    6.25583566959933
H         0.27892370426468   -4.44160886053293    6.41086633853986
C         2.17287892200354   -3.50432131663272    6.04893197408048
H         2.72099003800069   -4.43659976647179    6.04644715088652
C         2.83705111685037   -2.31165591473979    5.84410972093583
H         3.90502523740717   -2.30280032885428    5.67094403424594
H         4.49215901160852   -0.87213652673537    3.71402657159208
H         2.38070774063639   -0.58305868243514    3.04992600141892

