89
CSD_code = TEBQUM | q = 0 | S = 0 | Stoichiometry = C28H52N4Si4Zr | MND = 6
Zr       -0.39702726349096    2.97550351173397    4.43360975496737
Si        1.49261140545916    0.23720678044071    2.73167663086457
Si        1.76530526215278    3.34602736373862    7.29064440755688
N         1.10710507229395    1.33605232049005    3.99163754382057
N         1.19598313444076    2.52362991560711    5.89278088247861
C         1.76178333088958    1.65061036005913    5.08578232029491
C         3.09384723821894    1.06260119777858    5.37770128529575
C         3.25155650617158    0.06596166862469    6.33173773813430
C         4.50118896675065   -0.48209620362500    6.56284021500346
C         5.60204541919680   -0.03116665327086    5.85438877956539
C         5.45040219450561    0.96912247172666    4.90815629166777
C         4.20081040084216    1.51060043963488    4.66618108704133
C         0.86232420136949    4.43290247130359    3.25383159678976
C        -0.22303119583897   -0.31616731495837    2.09622810092345
C         2.43343863416924    1.17320687905517    1.34311274549706
C         2.49777883270095   -1.32353500021739    3.20911172737496
C         3.52194523083578    2.97231476720269    7.95734632820333
C         1.69700644373052    5.19756955574932    6.80080356537561
C         0.49963642374868    2.94934845671596    8.67697766257818
H         2.39209053757649   -0.28089075599168    6.88521806710509
H         4.61806665557765   -1.26304943725581    7.30018771433001
H         6.57691398101027   -0.45788952266668    6.03896196881843
H         6.30854306541200    1.32522501669621    4.35669848641720
H         4.07143598365284    2.28839915809169    3.92760067117781
H         0.72133582935716    5.50044069799781    3.48652998860608
H         1.92511419051083    4.21704265046766    3.46085226758520
H         0.72895225355213    4.33491392787693    2.16492597568187
H        -0.14793737551472   -0.91358610617401    1.19317453855336
H        -0.74420079968523   -0.90730200685784    2.84502533559860
H        -0.83229323694836    0.55804010150052    1.87844071437281
H         2.24483335093592    0.73485974663557    0.36858472227817
H         2.12180004464502    2.21474975942922    1.30615933914342
H         3.50703595140779    1.15436862746522    1.50571296779370
H         2.49996267738195   -2.04487187123223    2.39816051562135
H         3.53084778278424   -1.08294131810642    3.43881551133003
H         2.07705397638497   -1.81292896002222    4.08246381112962
H         3.77144818775675    3.64616495861829    8.77072709356396
H         3.60395465222918    1.95794676316713    8.33367231480339
H         4.27609016806262    3.09259007910244    7.18597830101843
H         2.59838735888320    5.50251871176855    6.27646757950688
H         0.84910558190168    5.36961757326967    6.13588882107670
H         1.59409263067986    5.84254840160726    7.66726344933822
H         0.46703764988822    3.74007402447148    9.41889084406325
H        -0.49817840563880    2.83520970830537    8.25867317887439
H         0.74570196743285    2.02863384839891    9.19759951314574
N        -1.90048167719894    1.33532951673618    4.87608813297595
Si       -2.28653779834275    0.23761857511084    6.13688371226515
C        -0.57075999028873   -0.31600939610690    6.77172482382061
H        -0.64540409334321   -0.91279040017650    7.67522571603426
H        -0.05016596450740   -0.90771631565490    6.02298945081113
H         0.03876376436634    0.55825880126835    6.98851236976566
C        -3.22665142150959    1.17367894741036    7.52589908838051
H        -3.03665263766347    0.73573256668668    8.50035192549287
H        -2.91592070292386    2.21547777817740    7.56234497894885
H        -4.30040681867758    1.15383287717010    7.36443689023890
C        -3.29350156734826   -1.32240322839720    5.66082453005658
H        -3.29597971486728   -2.04330449475593    6.47215750504650
H        -4.32647633339971   -1.08066748063655    5.43180621812968
H        -2.87408027400018   -1.81273597857234    4.78738343102379
C        -2.55565253384815    1.65008400173822    3.78231556171755
N        -1.98984351784400    2.52263474803356    2.97477816007031
C        -1.65781023339939    4.43067819270197    5.61450438718264
H        -1.51832603434825    5.49861524538876    5.38279948251984
H        -2.72033904899541    4.21335438885903    5.40761897270292
H        -1.52376741048828    4.33165971365421    6.70323145152681
Si       -2.56012958061349    3.34593232682882    1.57784836930001
C        -4.31704680188252    2.97255805588460    0.91171469238028
H        -4.56677524141450    3.64677593737749    0.09871007948228
H        -4.39953160061020    1.95834741958071    0.53511390024488
H        -5.07074969981431    3.09282315415982    1.68351125419736
C        -2.49276663091170    5.19714461717779    2.06897267913977
H        -3.39232772239515    5.49993798825774    2.59755932685736
H        -1.64228189205846    5.37027743744554    2.73035475076142
H        -2.39487882613388    5.84307375242643    1.20260097772060
C        -1.29441548564480    2.95022519437277    0.19126773645684
H        -1.26118883886530    3.74172267097973   -0.54978647046533
H        -0.29674639997655    2.83508821094770    0.60972884410111
H        -1.54086729678198    2.03021334231729   -0.33043482012212
C        -3.88803554028325    1.06253885062998    3.49103808400121
C        -4.04618559093125    0.06576363000323    2.53720696824025
C        -5.29595584940983   -0.48217908420184    2.30663543141584
C        -6.39650065703917   -0.03095440215727    3.01539601830882
C        -6.24441549439796    0.96951010716824    3.96137227283837
C        -4.99466576840471    1.51085271266946    4.20285185572271
H        -4.86493693742501    2.28873138397345    4.94128611135141
H        -7.10232250419836    1.32581473939944    4.51306631556564
H        -7.37148429396601   -0.45760239087249    2.83127365452510
H        -5.41319757459133   -1.26325471170393    1.56947833820086
H        -3.18690466103164   -0.28124576562547    1.98353448668811

