68
CSD_code = TEBQAS | q = 0 | S = 0 | Stoichiometry = C31H33NOPRe | MND = 8
Re       -0.31075537053471   10.05870817164882    4.87708012043878
P        -2.17983375558081   11.38980792373960    5.49255719212674
O         0.52668307010070    9.22289307178453    7.55663558464233
N         0.18559294063882    9.60610948400836    6.48657197348235
C         1.06997904363972   11.76434617605907    4.86527287240498
C         1.47669101871215    7.15440227298109    3.72717116697117
C         2.70693489576892    8.00246683162930    4.10933749818912
C         2.85695824079109    8.30669002642811    2.60817790327238
C         1.98927183542454    9.51636854408060    2.24419216780291
C         2.13801384083998    6.96067231554961    2.32803483557721
C         1.23407004290713    6.84718825497187    1.10597805930044
C         3.10919986187596    5.78408474107079    2.30691248774712
C         0.34410873108717    8.10350873349990    3.54779004126215
C         0.61763973097123    9.30993504973133    2.82801898043211
C        -0.62156181200338    9.95485472623479    2.57640538815630
C        -1.64679370049586    9.13437270784574    3.12508904953562
C        -1.05458695571551    7.99673692005674    3.72048836493641
C        -3.54731422697435   10.52435436291805    6.33669629372567
C        -3.37117421186423    9.20427569491175    6.73120308620201
C        -4.38613113054931    8.53544469110819    7.39252834610422
C        -5.57917527683220    9.18395584318325    7.66379093816161
C        -5.75419955954361   10.50567346819153    7.28264600891204
C        -4.74158807828664   11.17874616196834    6.62543758986787
C        -2.94297576919565   12.15108241041869    4.03226301763858
C        -2.22593839655057   13.16448887790239    3.39868428088682
C        -2.70424721990862   13.72649051252282    2.23082478065004
C        -3.89465389294508   13.27410632304586    1.68097263503300
C        -4.60354235070750   12.25911652690463    2.30156570049246
C        -4.12981094004616   11.69283738181547    3.47284095422259
C        -1.95024488635561   12.79732575521089    6.62943816117537
C        -2.66511381175145   13.98508101390666    6.52755150554210
C        -2.47535890760874   14.98548234424074    7.46503458372093
C        -1.58069567727693   14.80463217481222    8.50638142924049
C        -0.86642812261804   13.62106285776190    8.60971450824738
C        -1.04806067313416   12.61969569729592    7.67428803172788
H         2.10159775221097   11.43935038577016    5.01973510403897
H         1.01192791526571   12.18980852972039    3.86015736353987
H         0.88362749275676   12.57714826666119    5.56937168298404
H         1.23574850348671    6.26944919815137    4.31732993049055
H         3.52757630100579    7.41601791614666    4.51377743103585
H         2.51593227433276    8.84992810782442    4.76936243029473
H         3.86760262157896    8.41580172358369    2.21011135433514
H         1.91908933827885    9.62518612130789    1.15612182401842
H         2.46043530568311   10.42650091071716    2.62998666402240
H         0.46771142986416    7.61574388117177    1.07556914144799
H         1.83070811100065    6.92479131098987    0.19802285050992
H         0.73611419233545    5.87837401803456    1.10506151151938
H         3.79877135291874    5.80652352218883    3.14531282313052
H         2.55894300507272    4.84505196046954    2.34483603332149
H         3.69210610869576    5.80013195580528    1.38708870735890
H        -0.78473249419431   10.77836553861589    1.89153056797759
H        -2.70912610171787    9.29056499628163    2.99382419146977
H        -1.58180453474222    7.15817048379382    4.14735861945842
H        -2.42862334750070    8.71450588193471    6.51988787815276
H        -4.24596243890281    7.50945331766215    7.69878973516925
H        -6.37338357236377    8.66283042291719    8.17764652479702
H        -6.68270535994981   11.01251554634501    7.50175825386707
H        -4.87339550650500   12.21184024624608    6.33540608207908
H        -1.29298069171203   13.49497024281319    3.83552119454216
H        -2.14761485494436   14.51291575731138    1.74217308460223
H        -4.26620035986214   13.70894345482361    0.76481737831878
H        -5.52681255851637   11.90171508027039    1.86884539969059
H        -4.68093366057764   10.89480998817870    3.95189541242667
H        -3.35868354001071   14.13772856731334    5.71202112256900
H        -3.02818251782757   15.90992485892230    7.38093925548585
H        -1.43702668069617   15.58919552305080    9.23447694225107
H        -0.16417399577542   13.48126282802704    9.41744067255917
H        -0.48600801496836   11.69638140751383    7.72434729470318

