60
CSD_code = TEBRIB | q = 0 | S = 0 | Stoichiometry = C21H35CuO2S | MND = 4
Cu        1.15244573253225   10.34898184730936    2.34315657643890
S        -3.52937879146354   10.72989164407733    2.57004055020259
O         2.30291897379560    9.19368727086590    3.27812467278212
O         2.39948689663107   11.45594624059733    1.47387048227061
C         4.34728515324616    8.27749702519271    3.99260797467916
C         3.56188423118782    9.31807996861334    3.17978443528364
C         4.22995298077708   10.27474210744433    2.41977771181067
C         3.63856783357916   11.26341506976472    1.62806414544187
C         4.57047054940044   12.21378127978018    0.86119422647501
C         5.86613904710769    8.42021462283449    3.92698420509111
C         3.89330086959699    8.40659189737963    5.45256694721479
C         3.94770202121035    6.89780789056784    3.45164736236270
C         3.73405229016901   13.20731327867742    0.05167719648807
C         5.44416571254044   12.98842245359581    1.85428091744402
C         5.44925402651788   11.40348809814062   -0.09871058786905
C        -0.62664009491413   10.85834645177280    1.88394075843130
C        -0.66822499920109    9.88560789013484    2.66840236221543
C        -1.50098113069699    8.94383901472766    3.43587433094302
C        -0.95542193941224    7.51840962951795    3.33823111829091
C        -1.55780372930557    9.39522192018418    4.89728365539141
C        -2.89572662280147    9.02755164341187    2.79039905188563
C        -2.80139566838524   11.26884322872552    0.98018761328290
C        -1.37870258712248   11.84574918167423    1.09070347207868
C        -1.39704535413532   13.18307997402422    1.83462415664380
C        -0.76661009716820   12.01769580705721   -0.30026879136662
H         5.30353762200501   10.25481693110361    2.43673040943911
H         6.23249644437256    8.29774348738074    2.91024779831639
H         6.32108759672055    7.64513830481747    4.54119752000603
H         6.18951379040496    9.38496790253675    4.31132569460825
H         2.81138002782698    8.32471081922588    5.51555719245999
H         4.19051856255141    9.37227704132474    5.85725500387368
H         4.34157869344797    7.62206810676283    6.05827053424661
H         4.40429813091552    6.11141532860947    4.04873601311510
H         4.27506677924436    6.78628877742374    2.41955481286614
H         2.86744187173876    6.78206947569161    3.48475792164255
H         3.10781601772611   12.68081837341280   -0.66433262387092
H         4.38484148548240   13.89107385283825   -0.48860638828348
H         3.08815599851018   13.78394740069395    0.70899549032519
H         6.08905951954864   12.32298775279280    2.42168797558997
H         4.82177952148877   13.54163826843645    2.55430405793642
H         6.07201276567419   13.69656332969331    1.31717204319837
H         4.83031123884552   10.81140750095727   -0.76939769697913
H         6.11231806489020   10.73084772558796    0.43827983213788
H         6.05876961700193   12.07740616056702   -0.69734550662016
H         0.05874712662723    7.49679429837781    3.72944240273761
H        -0.92922714089092    7.18622291514579    2.30225961580356
H        -1.57492365816887    6.83174385279303    3.91156124881477
H        -2.15647604810785    8.69986533508075    5.48222640427494
H        -2.00528902601444   10.38445670579824    4.96453338464896
H        -0.55401874585201    9.43609764537626    5.31271297349802
H        -2.89626648501501    8.55938847935245    1.80576659680521
H        -3.63692846551772    8.53709516395684    3.42154991154235
H        -3.49025152668621   12.02553548902648    0.60443375834490
H        -2.81914224778801   10.40518433209918    0.31501038154350
H        -1.93381439728899   13.92941637393459    1.25248888126379
H        -0.37976706096531   13.52782693066869    2.00190729196288
H        -1.89118266400847   13.06790860273378    2.79689405269078
H        -0.75846540000716   11.07066458894385   -0.83644328292010
H         0.25941938427689   12.36283212906776   -0.19912986289648
H        -1.33319269667552   12.74387518171603   -0.87964838603488

