48
CSD_code = TEBSAU | q = 1 | S = 0 | Stoichiometry = C23H19BrMoN3O(1+) | MND = 9
Mo        1.20430919791207   10.42001575467594    3.44729495103927
Br        3.03292851898745    9.03212054285387    4.87007564313988
O         3.60654848716826   11.94147601842634    2.23367951172680
N         1.40009064022422    8.50060345303332    2.51061910462524
N        -0.09109728809659    9.23351500378095    4.44026025002315
N         1.16951640909723   11.20622655072411    5.44215883463381
C         2.70985131104944   11.38546207643201    2.67390317472849
C         2.30962135962574    8.16746332411732    1.59990042927571
C         2.29792966844246    6.95367187887213    0.93893708006354
C         1.29108613628356    6.04255565720330    1.23397639240236
C         0.35899011961233    6.37187774626051    2.19966691430984
C         0.44162148818503    7.61048986233905    2.83653680512938
C        -0.39734247709439    8.01523021880430    3.95870582570998
C        -1.33300196486080    7.20061787501905    4.59099244731418
C        -1.91682453641334    7.63789305236795    5.76937426296432
C        -1.47078497178920    8.81786374257870    6.34324501160311
C        -0.53133759873119    9.58687748628123    5.66140972524512
C         0.17527667803217   10.73374560159472    6.22026126841791
C        -0.05778466796338   11.25739826422713    7.49228860010690
C         0.76066080358402   12.26219422125684    7.97222722857168
C         1.80747760732257   12.70919354618528    7.17517096543016
C         1.97007673493353   12.15414127221973    5.91986727423765
C         0.89382259528848   11.04848563037593    1.25344553623170
C        -0.25410419431012   10.39485284444505    1.76813783854328
C         0.75966960520823   12.62749816240244    2.96397222861015
C        -0.38815469862215   11.97246272421536    3.47718568334089
C         0.63498239191420   12.53911033872301    1.44646694604214
C        -1.16938424545878   11.50570399204532    2.25885464157184
C        -0.88360555169409   12.62542474878121    1.24770307883249
H         3.09202262620504    8.89328244268588    1.41543221524178
H         3.06200655653901    6.72641087334780    0.21419755493284
H         1.24485858363555    5.08943833445193    0.73163682600266
H        -0.42041035279913    5.67633307391541    2.46263858213624
H        -1.59097710955013    6.23746667335867    4.18458759618996
H        -2.66332328951805    7.03817487005458    6.26417644731011
H        -1.83652650037908    9.12137036309121    7.30939307034986
H        -0.86443894113479   10.87785613931844    8.09696507789352
H         0.59738560919637   12.67879574374347    8.95339175978279
H         2.48751622294662   13.46985316770093    7.52117004022199
H         2.78863361179293   12.45855694421813    5.27924317852182
H         1.44889616628303   10.68268226087226    0.39496375805618
H        -0.67654696058821    9.50425651091116    1.30873355201428
H         1.21008366865684   13.49336649991598    3.43972810672302
H        -0.91603320702067   12.32218010958235    4.36132058535971
H         1.25949446161494   13.21752317816560    0.86921461290009
H        -2.20904209455974   11.23290016129256    2.42920122387168
H        -1.30114531634623   13.58741472595584    1.54284151118292
H        -1.19849129281171   12.37926633717692    0.23424664743764

