78
CSD_code = TEBTUR | q = 0 | S = 0 | Stoichiometry = C28H45ClN2RuSi | MND = 9
Ru        7.92655061268811   -0.32238772485303   19.92551241024678
Cl        7.80091539692700    1.87271179573167   20.76908235768773
N         8.91755899490512    0.53706939723943   18.31044323326894
N         9.98461730645181   -0.02370903400345   20.10404249532693
C        10.05105228552271    0.67389433628814   18.97793750442808
C        11.17415063871685    1.44371970692916   18.57219128130496
C        12.14840416493572    2.08948031283935   18.25973768685996
Si       13.67173346816663    3.06206707065989   17.82397756801291
C        15.13688332615424    2.24910130525865   18.73417946627079
H        14.98512451528425    2.26277007804084   19.80937921920347
H        16.07017743495698    2.76491864891040   18.52695794895314
H        15.26032849721950    1.21230339761737   18.43526607009539
C        13.90931654406755    2.97270662739936   15.93444665775427
H        14.01309291040752    1.94539892900892   15.59791957297170
H        14.79816720312798    3.51299827905255   15.62123670710685
H        13.06125120326934    3.40446451783902   15.41130502651413
C        13.42249204328295    4.86145557068547   18.39595835960494
H        12.56971025647182    5.31606165276049   17.90074291552207
H        14.29433175272036    5.47270985539803   18.17970521477415
H        13.24176575833413    4.91056808182609   19.46551788148221
C         8.61054112364500    1.27905544763200   17.11708801233913
H         9.38998686539933    2.04145069383687   16.95694416147997
C         7.25603203977304    1.97534619374874   17.27879525574088
H         7.30318262454486    2.65018797725649   18.13550413349215
H         6.50030502734863    1.21490558666216   17.49242975324393
C         6.88385408669194    2.73739242584870   16.01282816560606
H         5.90814292987369    3.20988056689863   16.14228263425546
H         7.61747822462633    3.52756505401937   15.83785680878103
C         6.85413645880949    1.79938463556446   14.80964458301299
H         6.07797588026496    1.04459629054637   14.95736138467654
H         6.60712802759717    2.35965183644220   13.90523480375935
C         8.20447332973850    1.10969416926945   14.64036939922071
H         8.97160274977650    1.86086935670921   14.43892256839391
H         8.17225829036804    0.42722404708152   13.78795421197919
C         8.57599802481841    0.34053187775462   15.90316294332419
H         9.55377019585713   -0.13238932061134   15.78623682896176
H         7.84152091242518   -0.44562843403970   16.09054901207715
C        10.96465545061780    0.12864071359554   21.14908312214549
H        11.32146354405205    1.17192368465591   21.17055226658352
C        12.16680790490530   -0.79379505986146   20.90183508775241
H        12.61858275460388   -0.54434740449778   19.93949456737133
H        11.81490369871541   -1.82673280234446   20.85561036826041
C        13.18743607363719   -0.63806203775537   22.02383157797150
H        14.03451349822922   -1.30487129918790   21.84796860393724
H        13.56282462228008    0.38764317830122   22.02482709458390
C        12.55319554677033   -0.94617832270575   23.37733648046660
H        12.23437361976688   -1.99119813812459   23.39696098614277
H        13.28890428569137   -0.80676175561852   24.17239703055623
C        11.34610208570023   -0.04428503652994   23.62101786954747
H        11.67323049854696    0.99643563402030   23.66735362139877
H        10.88315630532646   -0.29221932542765   24.57850753527488
C        10.32759602593010   -0.20219649072119   22.49818442079671
H         9.96808862048940   -1.23330128493991   22.46921489410903
H         9.47287653111410    0.46016091735753   22.65539738880430
C         7.84624208226739   -2.44526518022053   20.55320762259493
H         8.62456820478006   -3.12945253747405   20.87232593588453
C         7.13115789129946   -1.71423218345005   21.53637036503860
H         7.36887295915487   -1.84491339292868   22.58604272544243
C         6.07445778868322   -0.86333982503127   21.16290396739766
C         5.71713715587398   -0.77725646597412   19.78838474443762
H         4.86092003484562   -0.17777061770151   19.49897264340929
C         6.40694418261911   -1.53911199939980   18.82636390333635
H         6.06976046740737   -1.52326833015209   17.79431731209288
C         7.47366087441655   -2.40120624300086   19.18885473911237
C         8.14057895909206   -3.28200534881757   18.15876979049626
H         7.75535775137623   -3.00176326427863   17.17125824404420
C         7.78532795069219   -4.75079534828094   18.41155040302897
H         8.16050916556235   -5.07722878935637   19.37897866923147
H         8.22726123138724   -5.37979648840025   17.64240636310146
H         6.70635613264084   -4.89246934050492   18.39614758844274
C         9.65636156661819   -3.07481260502056   18.14974599406595
H         9.88406851124879   -2.01216064044860   18.07425165951052
H        10.10191574391322   -3.59256359566022   17.30331818394367
H        10.10813017678342   -3.45959688010492   19.06060576283581
C         5.32424778055076   -0.06209672686705   22.18270427533955
H         4.25943561357314   -0.04495310480679   21.95597442698624
H         5.69222206605292    0.96733414247098   22.16503180558379
H         5.47418353753652   -0.46105161406999   23.18363572112656

