38
CSD_code = TEBVOM | q = 0 | S = 0 | Stoichiometry = C16H16BClFeO3 | MND = 8
C        -0.34503465755836   -3.18427854015371    1.84481158546678
C         1.04189708296980   -5.02969081849359    1.24461786752219
C         3.04390403840184   -3.98429050201898    3.57733736154835
H         3.66177070643772   -4.84703080618437    3.76072612030782
C         2.07983755294671   -3.46047990150436    4.46861205769849
H         1.82058892115805   -3.86920058760659    5.43049212375472
C         1.59308530139433   -2.25684525325167    3.91454295285754
H         0.92938424766272   -1.56132560771010    4.40188108846846
C         2.31327357333903   -2.00068025824721    2.71197226154664
H         2.24685234373086   -1.10190571435274    2.12150649471319
C         3.20351472246525   -3.06581849783866    2.50685739220441
H         3.93975072928436   -3.13681728915941    1.72410427916215
C        -2.10745392877584   -6.30406910281623    3.70977367447483
C        -2.74649634379084   -7.20831811085545    2.86227958469482
C        -3.65447759342385   -8.09600647501444    3.41432292563913
H        -4.15481330661147   -8.80483315768644    2.77023914765305
C        -3.93444705659793   -8.09532132727855    4.77545259401662
C        -3.28670964860535   -7.17860277136992    5.58783108478927
H        -3.49579328132433   -7.16388471689845    6.64793121984845
C        -2.36786336883177   -6.27190785958588    5.07580036731861
C        -2.42628988805855   -7.20075704144450    1.39927445765634
H        -2.54132720232828   -6.19607400001238    0.99394353367444
H        -3.07564343797360   -7.88289679503970    0.85758457662397
H        -1.39027938480402   -7.49944471041576    1.23715729802701
C        -4.92685032387437   -9.06765785976930    5.33855740885116
H        -4.99156027301346   -8.97653378802062    6.41950316230730
H        -4.64094867482673  -10.08871229310407    5.09085011489475
H        -5.91438691777048   -8.88709404219126    4.91544589361071
C        -1.66607166217753   -5.28903639320292    5.96408535100302
H        -0.67179096068277   -5.65912179385418    6.21560812554790
H        -2.22213855512169   -5.14444596190125    6.88682456673717
H        -1.55077922959483   -4.33086053204862    5.45941101381450
B         0.09014120018249   -5.33335812500375    3.21394801874950
Cl        0.97758775190836   -6.60723174094936    4.02748411935498
Fe        1.10907111607610   -3.85464791725865    2.51241964460056
O        -1.29748312943859   -2.76115293174041    1.36639028679122
O         0.91636133888149   -5.79639452144444    0.39160553038692
O        -1.22728180165575   -5.38917225457778    3.14481471368352

