52
CSD_code = TEBVAZ | q = 0 | S = 0 | Stoichiometry = C18H29ClN2RuSi | MND = 9
Ru        0.72120708973816    6.18476257094830    5.74022742590975
Cl        1.78426308230566    5.36056559754532    3.80650878386198
N        -0.53237608558276    7.16334195833399    4.40253684011783
N        -0.92246006977807    5.12824822980212    5.00966690495032
C        -1.22591807766642    6.07149835544689    4.12891538988930
C        -2.13931851392094    5.91375499292732    3.05161616384063
C        -2.91962225583698    5.75202406530217    2.14130416096669
Si       -4.07741063126873    5.46923558720965    0.71244696170741
C        -3.55885569407492    3.84709123790136   -0.14066441515028
H        -2.52376409606891    3.89118674100322   -0.46568409853186
H        -4.17121431676734    3.64186517825307   -1.01427815174915
H        -3.65325969497321    3.00151367766224    0.53428000124985
C        -5.84297216284467    5.33495390124461    1.42039247951596
H        -5.92747855028141    4.50081557477544    2.11066303780688
H        -6.57482072281312    5.18475185685435    0.63181593562384
H        -6.12034127796365    6.23608103340346    1.95936983695977
C        -3.93715563133363    6.95554733539121   -0.47147445267328
H        -4.19443442746244    7.88397899490693    0.02990832583537
H        -4.60182248839304    6.84693026345880   -1.32400673619358
H        -2.92597726923185    7.05850849714845   -0.85352723337641
C        -0.51367416117593    8.31989878877183    3.54139913490845
H        -0.91339043251246    8.03533344868582    2.55486036355954
C        -1.39841486354298    9.42098838559637    4.13566925470060
H        -2.42321539347946    9.06805059487905    4.22530742350645
H        -1.38311679647524   10.30079016792400    3.49783493055742
H        -1.03776602492158    9.69472516102350    5.12450315704410
C         0.92754682040864    8.79846865362631    3.37314998517888
H         1.31475573988424    9.15977973326838    4.32340570086960
H         0.97594985240153    9.60319433711293    2.64430239383056
H         1.54840942919420    7.97208784517589    3.03269715193085
C        -1.32125253206108    3.75204132187879    4.82768156566827
H        -1.35417931145444    3.52340275124972    3.74973668365383
C        -0.28847930990913    2.84590927297501    5.49261446744173
H         0.70390847912072    3.09711211266655    5.12085918329408
H        -0.49672455252059    1.80437122946525    5.26254368475235
H        -0.31324646292869    2.98028893511270    6.57180177976004
C        -2.71684890783393    3.53283012603011    5.42226838624007
H        -2.71337751410604    3.78127500572742    6.48121291374985
H        -3.01372243162872    2.49412256455189    5.30334103568318
H        -3.44107486222515    4.16704800909008    4.91625160849282
C         0.19681214492956    7.10173973613238    7.72089642089759
H        -0.71438808749574    7.54683122895432    8.10267905326256
C         1.17659838514346    7.90786648267968    7.09588408190538
H         1.00905094439673    8.97558444840615    7.00371434042303
C         2.40822246327476    7.35585856584107    6.68926394537162
H         3.18775131721069    7.98842229364898    6.28182947144479
C         2.64996543173340    5.97426672160730    6.89130633101025
H         3.61348700975146    5.55607637652466    6.61651557402159
C         1.68887594375496    5.16070578432655    7.51770458019567
H         1.91455820236764    4.12608644409801    7.74504312300870
C         0.44449774598614    5.72325644514933    7.89754559538744
H        -0.28418647106529    5.11263137826995    8.41975951770477

