63
CSD_code = TEBWED | q = 0 | S = 0 | Stoichiometry = C32H14BF15Ti | MND = 13
Ti        9.18742653391892   -1.54058874048823   17.81568897697610
B         8.93069745567371    1.03706625845349   13.68930217511726
F         7.90186026031622   -1.03446609162238   11.98073124189223
F         5.72119106229394   -0.93252743683466   10.43020283247581
F         4.19818306569766    1.34434289099807   10.33343937679584
F         4.93795817692586    3.50817657300051   11.83649797312681
F         7.10683462578005    3.41758583385616   13.37696559678015
F         7.24261012553174    1.52459209375996   15.99287849895052
F         7.58314259596005    3.37059961940833   17.87455097214625
F         9.54405318877649    5.28053571100902   17.61589651993297
F        11.18893944385728    5.20334847876650   15.42658667799187
F        10.93114338995290    3.29186150491917   13.59860060571621
F         9.24394189200340    1.84635885842559   10.83204180650042
F        11.42380459779571    1.54213368935554    9.34590236088446
F        13.69835515003706    0.44100027603499   10.40197287588537
F        13.69506234944554   -0.34356533195755   13.03625051172426
F        11.52810553733658   -0.04890396037220   14.53244048777807
C        10.24768834161175    0.35264246595108   18.19487217739777
H        11.33429667211901    0.34624604550815   18.30512807640795
H         9.77788772930105    1.08584009733469   18.85414339394213
C         9.78980331473197    0.32202184065816   16.87718861631850
C         9.24856034702357   -0.27507291332524   15.92907670781496
C         8.74206177937581   -0.39322135228263   14.59061802702462
H         7.67937896140288   -0.64545389884742   14.62436356033867
H         9.25595652368037   -1.20008581872672   14.06520371261744
C         6.91931791484217   -1.05899255113074   17.58794214954718
H         6.37755773712153   -0.72176395371667   16.71513974195435
C         7.40219905249763   -0.22644067257290   18.61587219161582
H         7.30750448656834    0.85007703439419   18.64118672772665
C         7.88483816529584   -1.04766687929711   19.66301716022992
H         8.21584396864757   -0.70514851054275   20.63746117377913
C         7.64665872466401   -2.39092060607025   19.29894923988149
H         7.75560385107474   -3.25042647317371   19.94720876353624
C         7.07864611875101   -2.40152430069055   18.00130422830123
H         6.66666522295635   -3.26653725645024   17.49436295286749
C        11.31334070607090   -2.35654473740994   18.26529731592857
H        12.10745964280791   -1.92405797937359   18.86149566440259
C        10.35530535879116   -3.28580688431168   18.73383385654664
H        10.29813261852702   -3.66724082224861   19.74574001112185
C         9.65145142737817   -3.78614973656701   17.61336282191590
H         8.95219344280645   -4.61226349350594   17.62443560331969
C        10.15487489306066   -3.14726950560271   16.45824446546098
H         9.89617259630573   -3.39728218216025   15.43583725197717
C        11.20069073183228   -2.28790207799345   16.85904035956590
H        11.85550034882638   -1.73569898459489   16.20017583101138
C         7.18195299026163    0.10571470460656   11.97589540290971
C         7.59166951632025    1.17476662267675   12.76962201549652
C         6.79870605529774    2.31273088386994   12.67716863901981
C         5.66615579691175    2.38642402124526   11.87125770510586
C         5.28769657017839    1.29238183805655   11.10541646775866
C         6.06141450914757    0.13955951865834   11.15784885209836
C        11.44468685794963    0.34786381761285   13.24076743128299
C        10.25727268661551    0.87987047476723   12.74891382321253
C        10.31197965815859    1.28103528761460   11.41656267749496
C        11.44569300453665    1.14295997702642   10.62152973968213
C        12.60284168354408    0.58824667361195   11.15205741879801
C        12.59693380771831    0.19219543348890   12.48200469039985
C         8.25238536177246    2.40780517917893   15.82191641830436
C         9.09210300696261    2.29266303083883   14.71681767755324
C        10.06687220338740    3.27955709236615   14.62520987550416
C        10.21980879855257    4.29289699561343   15.56884298076117
C         9.38414103806013    4.34316483718519   16.67600968305530
C         8.38718632507222    3.38505749150708   16.79600722821584

