53
CSD_code = TEBWAZ | q = 0 | S = 0 | Stoichiometry = C21H26BClFeO3 | MND = 8
C         1.57714635355624    0.28373027074296   -1.53383097022539
C        -0.11418552373597    1.99088004413866   -1.85711116826502
C         3.29865362672849    1.90501482134890   -3.62063624568269
C         3.26011372929946    2.69270552625798   -2.42332859136924
C         2.18552175855256    3.60528698664068   -2.53538908764706
C         1.54769144208491    3.38305476214533   -3.80679049529471
C         2.27677758414861    2.37539576101047   -4.49637101626680
C         4.38727690885319    0.95371421109621   -4.00426293154762
H         3.99373872033523    0.14472808762605   -4.61379544493155
H         4.85504174766631    0.52165236192752   -3.12369543849665
H         5.15430747075883    1.47473481000564   -4.57980805569893
C         4.26639439773612    2.64500545540007   -1.31722657830210
H         5.10968763557559    3.29772660437110   -1.54962127112449
H         4.64502794494363    1.63565564215133   -1.18051171880015
H         3.82803740201360    2.97432583635125   -0.37896080644861
C         1.85757660085672    4.71166983573219   -1.58233517062975
H         2.12777530182256    4.44098315744400   -0.56503534951778
H         0.79549688964087    4.94127396788053   -1.60289133278215
H         2.40697363428702    5.61492836855368   -1.85379025480540
C         0.48321054291943    4.25419613201629   -4.39982379284077
H        -0.18984685438969    4.62316672724409   -3.63018499113303
H        -0.10547635534235    3.70460627750289   -5.12994581338265
H         0.93411673271790    5.11311740311284   -4.90009627505887
C         2.12228562040052    1.99611103548526   -5.93343842615553
H         2.83422760484382    2.56061970838275   -6.53845174427805
H         1.12046454969193    2.21741181803011   -6.29211566907174
H         2.31927205788903    0.93753497028183   -6.08039065165591
C        -1.52425652014708   -1.13306015749766   -3.93773540830718
C        -1.91621007498935   -0.99816980767093   -5.26579202803570
C        -2.72136511609393   -1.98591939084406   -5.81643852843879
H        -3.03025012737564   -1.89080027264664   -6.84773254911748
C        -3.13231786979659   -3.08338084027173   -5.07697102123849
C        -2.72563748568536   -3.18615443320774   -3.75234151439165
H        -3.04053816640207   -4.03719884272099   -3.16544469699064
C        -1.92371513997035   -2.22243701811625   -3.16441794743417
C        -1.46327750750665    0.18270220800352   -6.07072452116513
H        -2.09897871796248    0.31945172559100   -6.94194291391379
H        -0.43857901823079    0.02886991098336   -6.41008246627459
H        -1.48436158928405    1.08586866267210   -5.46218377477136
C        -4.00069400179951   -4.14638615870747   -5.68042852070805
H        -4.24810338585058   -3.90847485938727   -6.71159848995308
H        -4.92582585375500   -4.24727212459197   -5.11451539839131
H        -3.49111514544880   -5.10886446972826   -5.65867112474426
C        -1.47001361271178   -2.32193369710050   -1.74053596917209
H        -1.94826044428238   -3.15907335416636   -1.23916915149861
H        -1.70227366841432   -1.40105294138541   -1.20637540290027
H        -0.38899239832429   -2.45810990893091   -1.69622596829607
O         1.62954674897437   -0.59565727813699   -0.78656524963860
O        -1.08955442549130    2.24673827839334   -1.30797926990850
O        -0.75622644557782   -0.14562771482227   -3.33806144755691
B         0.54103050275485    0.09517528709451   -3.45800341924707
Cl        1.50627772744604   -1.00227083947571   -4.43344468186281
Fe        1.38838421206996    1.60520745378941   -2.62937924463471

