55
CSD_code = TEBYEH | q = 0 | S = 0 | Stoichiometry = C26H23ClN4Pd | MND = 4
Pd        0.93585489754397    6.85013489946702   10.22492573382851
Cl        0.67909158226399    8.72961432383682    8.93645174990475
N         0.44071469575089    5.45892731018433    8.86160737219858
N         1.29296846091587    4.21949468833744   11.40108434203056
N         1.13063971749862    5.47197741183667   11.55600661954876
N         1.36146232819017    8.16354159161256   11.86314485810778
H         0.77318544776029    9.00209086039397   11.87334365884808
C         0.84298380202641    4.20245952316321    8.95666458586794
C         0.81430259990213    3.30656061684164    7.84323727777282
H         0.51897139230730    3.69279197792241    6.88120403013750
C         1.21018014999972    2.00739283392868    7.93486534741944
H         1.19653786963498    1.38494812699364    7.05176601175531
C         1.64203427540235    1.46020195052344    9.15744818100321
H         1.94880095337403    0.42725468862960    9.20802842284492
C         1.66207665335303    2.25365760597369   10.26174907811299
H         1.98185814332581    1.87714342856704   11.22125737660921
C         1.28126643470469    3.61855710021098   10.21572869787280
C         1.08378840595671    5.95794235482859   12.85459424647322
C         0.96706254846037    5.13365074990004   13.97765410331390
H         0.94173024230562    4.06551182036136   13.83115089966906
C         0.86541913319127    5.69233247437382   15.23530238463375
H         0.76416045391151    5.05101438272704   16.09758915274296
C         0.87777939835333    7.06968972401314   15.39992182399379
H         0.78022320219746    7.50007258824977   16.38452974642186
C         1.02156536305802    7.89750050419359   14.29718104619040
H         1.04185051866356    8.97152892351788   14.42245136309149
C         1.12906473961876    7.35239547092437   13.02988632260372
C        -0.24090465663604    5.90208476445458    7.65885635260395
H        -0.72699000971012    6.86012153458493    7.88678699413008
H        -1.02985141009975    5.18404849201054    7.39256362307572
C         0.67593538616356    6.12200649022561    6.47705275439697
C         0.16829443290044    6.10191498948036    5.18453105373440
H        -0.88316925305476    5.90641324919426    5.02515997818623
C         0.99984174521532    6.33455305337271    4.10395052517621
H         0.59535049640746    6.31728146113399    3.10226953987962
C         2.34587881803805    6.59002609694408    4.30406068908014
H         2.99347548638450    6.77285954994434    3.45917452380246
C         2.85645122908136    6.61366001625057    5.59055854302062
H         3.90503835419437    6.81844646377341    5.75206062458763
C         2.02526377173541    6.37981374272182    6.67066248542684
H         2.41459853642629    6.40116843942650    7.68205035434365
C         2.78224240818444    8.58476388423269   11.77964472905803
H         3.10135738849145    9.05234267086200   12.72107802701014
H         2.86584793127414    9.30719565301506   10.96169561783526
C         3.59911386529054    7.35199276724823   11.48468105384821
C         4.08745076542469    6.55207258559969   12.50773784982874
H         3.99584326763656    6.87500730206225   13.53550966284029
C         4.67595122532526    5.33040176678943   12.21804024925254
H         5.04144373184734    4.70963479322583   13.02210895974128
C         4.77537483596778    4.90064844536063   10.90755228696631
H         5.21215279421499    3.93866510320988   10.68567314199608
C         4.32346501128103    5.70892369275591    9.87421803532514
H         4.43645031891859    5.38380450439782    8.84986801502845
C         3.73471598948591    6.93323762140857   10.15628643666446
H         3.44510412996490    7.60992293472756    9.35169346025173

