104
CSD_code = TECDIR | q = 0 | S = 0 | Stoichiometry = C39H59MoN5 | MND = 7
C        -1.24845726951854    6.34607795039810   29.50846835154706
H        -1.75471216062547    5.94026358067379   28.63135255347213
H        -1.59200653260267    5.81056236355509   30.38978832629865
H        -0.18016935050125    6.16967584948752   29.37953613221199
C        -1.52605568007550    7.82006291668690   29.62889780942301
C        -1.16826476205775    8.69563961894720   28.58402432621056
C        -0.53784721695150    8.32810414770371   27.38711664205109
H        -0.25238017128526    7.30154906476899   27.22450265839570
C        -0.29079634213488    9.29006207832612   26.42371618470966
H         0.19479811135385    9.02315515612755   25.49650952191432
C        -0.68078982706561   10.59650758388633   26.65937658923831
H        -0.50940893882744   11.36266005022949   25.92087408960119
C        -1.29982007392785   10.92409195429464   27.87373210577292
C        -1.72258452656127   12.21093635447878   28.26271706272141
C        -1.51068681120712   13.38609463301187   27.34670816082945
H        -1.82423245753059   14.31284783308582   27.82026951433227
H        -2.08036710003371   13.25232686637334   26.42579473798787
H        -0.45885627846608   13.46704139749045   27.07126601853959
C        -2.65478935100832   13.56269656855470   29.92352944658395
C        -3.91981412063879   14.10637050475306   29.62711168929721
C        -4.30797845681466   15.29862239187932   30.21883970774135
H        -5.29219421696047   15.69576479109822   30.01967154027119
C        -3.45045340218690   16.00483838820328   31.03904047060554
H        -3.77069393136039   16.92674661126894   31.50147333654704
C        -2.15905375694773   15.54714620807590   31.21052667271007
H        -1.46179635216512   16.13988049835489   31.78314684511305
C        -1.74005409114500   14.34956880196847   30.65117428566519
C        -0.27893039096628   13.97064126824993   30.76457352595784
H        -0.15713449933752   12.95932658715321   30.36355070397906
C         0.57472300198873   14.91144062693667   29.90576391076999
H         0.28458668160814   14.85539808258881   28.86142343340078
H         1.62567699050056   14.63917454817014   29.98609023973381
H         0.45946275960313   15.94141164676242   30.23598018004802
C         0.23382765081642   14.02673660041798   32.20961009421946
H         0.40568940002124   15.05747039281906   32.51067526135951
H         1.18101803127337   13.49654341808643   32.30092376189342
H        -0.48366164562298   13.60291925835763   32.91013324051696
C        -4.83395436442907   13.48040297800836   28.59577496874170
H        -4.34210961344546   12.58012950419869   28.21184796611404
C        -6.20792927622820   13.12060402385847   29.16961039049900
H        -6.76245540856030   14.02251220325438   29.41667581239934
H        -6.11334623721400   12.53264946774040   30.08003651372983
H        -6.79237146013135   12.55989427281486   28.44050811252800
C        -5.02023759501277   14.43126225670314   27.40719803347127
H        -5.53045778741384   15.34046136161993   27.71504632889426
H        -5.61706856633010   13.94976774891917   26.63436427715497
H        -4.06166839358302   14.70942152402771   26.97826318641188
C        -2.51056335935944    7.55507777263042   31.73246790943317
C        -3.79112548946901    6.97194194626166   31.79613731210303
C        -4.17644629758960    6.28204298894769   32.93465370496666
H        -5.16897601355156    5.86066921995555   32.99179274617256
C        -3.30549943420774    6.10021967418443   33.99055079289248
H        -3.62246265315077    5.57208367561138   34.87760431496556
C        -2.00693044189106    6.55363820805569   33.87289728860368
H        -1.30333374377356    6.34822919801258   34.66570714460432
C        -1.58664595973955    7.25838051682948   32.75418101099869
C        -0.12073720681479    7.62433762808714   32.64885268266158
H         0.02354722740551    8.21711649923415   31.73935572233865
C         0.73581425996093    6.36018567862290   32.50880529319360
H         0.62120798403176    5.71981060160468   33.38027882125215
H         1.78609604713902    6.63142158280999   32.41740336188227
H         0.45070450460951    5.78973586690945   31.63049057456973
C         0.36768768318987    8.41374941935779   33.87189035913599
H        -0.36138904845076    9.15502684384615   34.19217023286246
H         1.31375489387909    8.90851321198984   33.65591021985046
H         0.53324479301580    7.74271988096853   34.71154715733469
C        -4.71754554557258    6.98381876788139   30.59984984746288
H        -4.26100544456375    7.61492403270833   29.83190343934098
C        -4.83538003487668    5.56765072495492   30.02381381693661
H        -5.27762231944019    4.89205311599462   30.75226802035427
H        -3.85889586944304    5.17884739792447   29.74983160133515
H        -5.46511472762394    5.57497165155259   29.13574101824390
C        -6.11933563430884    7.50551712326452   30.93157268087811
H        -6.65027515471990    6.79757821837445   31.56333210420270
H        -6.70227448372711    7.63553961113420   30.02005148483658
H        -6.07629562196150    8.45313631078723   31.46593535267365
C        -3.81579909593650   11.54354781199156   31.84163235522201
H        -4.81765541146943   11.74242905142025   31.43974646290692
C        -3.61717751375538   10.20364668444844   32.33160851372909
H        -4.48824248440763    9.54343469411118   32.25948446624041
C        -3.07992945562708   10.13655828064692   33.74735391463071
H        -3.02969531840174    9.10482906735558   34.10048486996661
H        -2.08122313588190   10.57227641213649   33.82984635903632
C        -4.01559109304230   10.93515245332851   34.66929825119828
H        -3.60584313065225   10.94628519898168   35.68255777224136
H        -4.97512712712858   10.41600050919186   34.71336123837886
C        -4.21937477421302   12.37127396768499   34.15768620084674
H        -5.28182230928532   12.55377090669143   33.98419050484532
H        -3.88544137385880   13.09320557199202   34.90714094845652
C        -3.46757839778004   12.62827527345425   32.83960581636013
H        -2.39631162064089   12.65532716605107   33.04978285302841
H        -3.74904074389162   13.61337110505237   32.46602128884899
N        -2.15142206483322    8.38301028729546   30.65466039767982
N        -1.53696489624598    9.98873102396161   28.84622766864613
N        -2.28694295442000   12.28717061748416   29.46146384109117
N        -4.44437337886177   10.07967276968544   29.30509395139029
H        -5.10687094591171    9.58535677132384   29.89576104054557
H        -4.86684878402868   10.96303079147546   29.03639918938035
H        -4.28178094945779    9.53219336447478   28.46320432237361
N        -0.59743450300650   10.80258605941065   31.65757023944722
H        -0.62659139377916   11.71861006427388   32.09219065765641
H        -0.56624279274990   10.10026272205082   32.38819386471953
H         0.25278809344554   10.73216838288434   31.10506569438022
Mo       -2.49885956350305   10.45242368821424   30.46915657906287

