45
CSD_code = TECFUE | q = 0 | S = 0 | Stoichiometry = C20H22S2Ti | MND = 12
Ti        9.30497147074317    7.68882915736854    4.07535802106760
S        10.27997408197191    6.52747615757120    5.89374722581749
S         7.15018819532223    6.77331456359720    4.46043035406641
C         8.87280602761887    6.43100858617569    2.09222678537523
C         9.71052576402022    5.68359640224983    2.95362247555128
H         9.48021034951378    4.71089736372538    3.37235102560349
C        10.94252814479671    6.36807375780883    3.07915390829353
H        11.81911905346998    5.99871711652373    3.59699802135454
C        10.86295336547552    7.54453589338458    2.31391142924957
H        11.68034258740973    8.22725622651131    2.12156757329689
C         9.58437439924635    7.59046790422960    1.71765865019601
H         9.25006224966756    8.30459261351256    0.97618359772965
C         7.56884340678205    5.98250380665577    1.50936706040862
H         6.89472431805598    6.82560582132383    1.35885623747951
H         7.08278092094738    5.25937472717695    2.16156652835374
H         7.74900049310319    5.50880655565909    0.54145521398215
C         8.28963793059508    9.78125709205775    3.81174407678733
C         8.36019472493456    9.48289602502939    5.19936268436891
H         7.50756654262416    9.47605414489680    5.86761587810995
C         9.71914880657016    9.45931512814487    5.57765950817206
H        10.10790987175096    9.37961736060668    6.58540441935376
C        10.49217096874206    9.72148571960676    4.42900054024847
H        11.56729765971802    9.85053364489643    4.41448388681613
C         9.60846652073655    9.96324501337874    3.35694915401092
H         9.89173193699154   10.31758507229413    2.37546761029780
C         7.02700177994810    9.98397530083744    3.02978301941393
H         6.51134606975882   10.88437580379220    3.37042161205850
H         6.35219296215757    9.13469964386168    3.16943033453460
H         7.24259034739690   10.09444305391267    1.96763318653127
C         9.27612326141445    6.66369693422563    7.43172367903519
H         9.99641541366357    6.62843457302518    8.25120097415263
H         8.76143135923821    7.62484016938899    7.44024442488121
C         6.55496404257611    6.72940304816031    6.20096631167095
H         6.82536643964004    7.65578850038422    6.70805428290507
H         5.46856754091246    6.67636064814101    6.11084898831531
C         8.35130444454257    5.49337122889804    7.48476571383019
C         7.08513108621943    5.51670101616343    6.89016372767217
C         6.30870667976348    4.36208178367626    6.90721952824274
H         5.33651662697732    4.38078568451446    6.43543038762193
C         6.76034602685208    3.20317558859402    7.50731015918958
H         6.14049920667281    2.31878257615155    7.50930134369359
C         8.01065705345245    3.18243213074653    8.10278933063946
H         8.37480023119394    2.28205451258890    8.57496808188621
C         8.79498828469869    4.31872184503105    8.08467447000814
H         9.77742135211646    4.30303010352261    8.53442857772625

