67
CSD_code = TECJUJ | q = 1 | S = 0 | Stoichiometry = C22H36AgCl4N4(1+) | MND = 2
C         6.47466452968398    3.75919641650307   24.01402466315876
H         6.97949782077655    3.43542277216127   23.10701715986759
H         7.10891518984504    3.51422481418650   24.86099860800701
H         6.35678534493383    4.83961711078688   23.97420373047136
Ag        3.39667792615840    5.73000588006277   20.47849537458146
Cl        3.45978495512964    7.25954925636704   23.32110356406341
Cl        6.26988950739661    5.95817022240650   19.02677331166390
N         4.68657999661734    3.09580759546325   21.72469156926444
N         5.05266026787935    3.14811926582267   19.61375847874930
C         4.16792377208769    3.46232308000174   23.02388203261944
N         1.36360849404883    8.08624909004687   21.16596402530095
N         2.48849571121799    8.59262262236366   19.41351418720323
C         0.92569409071934    7.36082074633793   22.33780226632157
C         0.93546548088014    9.32273543812305   20.76568797585534
H         0.18512082848150    9.88491221834591   21.28001265017125
C         5.08922562989628    3.63370475918823   18.25209861577245
C         6.34794094771898    4.47799222344785   18.03982460002663
H         6.43187062631680    4.79126884999800   17.00061589095587
H         7.24708003519968    3.93844247668363   18.33957141219387
C         5.39022331681649    1.96300654785814   21.41789835194013
H         5.66562303921178    1.22327077507989   22.13940502294752
C         4.46896490028102    3.83144818503915   20.61729937052165
C         2.78191492027674    2.84314546477486   23.21897566294134
H         2.40625958656331    3.04461371732015   24.22074211627405
H         2.79480632731637    1.76820143876218   23.03557941091403
C         1.63464185436082    9.63554163558132   19.64949674000763
C         1.76980662188477    7.77417416430750   23.54566285045093
H         1.40754063996045    7.29317869638522   24.45261833595633
H         1.77795010397470    8.85681504152784   23.67655538637578
C         3.70099232036808    1.70918920742810   17.38208536830938
H         2.83818809568956    2.36562054164765   17.29507874577889
H         3.65899522055494    1.21362403196305   18.34908567292494
H         3.63347139551630    0.94968588042994   16.60872648066912
C         2.32544351415112    7.62918081284534   20.34091102055066
C        -1.41686880163983    7.05293976478852   21.44068633766206
H        -1.22178762862955    7.63691672148118   20.54440339866792
H        -2.47224157014204    7.14278564718673   21.68084812798638
H        -1.20153124500238    6.00917320037825   21.22383929349097
C         5.11672104867541    3.08259661971252   24.16472886639597
H         5.23677635728966    1.99953872895823   24.21541984780746
H         4.65940590373348    3.40434296822047   25.10094464380261
C         4.83278306033044   10.40134603676848   19.08150423721516
H         5.59503568882188    9.70601367653393   19.42540125710542
H         4.17873688235237   10.63486010674309   19.91824035957045
H         5.32189847797689   11.31870167010610   18.76716349728463
C         5.63540157412288    2.00413608216509   20.08718278119423
H         6.16875015703043    1.31222090969596   19.47041610935302
C        -0.57070669201407    7.53696024923289   22.61300121154437
H        -0.81898450635351    6.95148636715039   23.49886370521915
H        -0.79627587844646    8.58039240123676   22.83762937228772
C         4.99173271683023    2.50469710871679   17.22172301840720
H         5.01261372968546    2.95556919290647   16.22896489119373
H         5.85621793713675    1.84362850089370   17.29821902176978
C         4.05213845697023    9.79970167407071   17.91826896391041
H         3.29456853018469   10.50174655978104   17.56728692292767
H         4.73435314138325    9.61390854901990   17.08803074902475
C         3.40683387689526    8.46520623704480   18.30368256750076
H         4.19783150722279    7.77978951136767   18.63585850789522
C         2.69117295991091    7.82432023068035   17.11229811826813
H         3.34563314445284    7.78767719244178   16.24303724974371
H         1.77206000112171    8.35619067955744   16.86398246111258
Cl        2.23903534894980    6.14537627301101   17.49668922420714
Cl        1.62139877017172    3.55759869456268   22.07265707633189
H         1.11899476498958    6.29946870982448   22.13283397421175
H         4.05598264707910    4.55461739478328   23.01371140955281
H         4.21497749076372    4.28787666476156   18.13504982587221
H         1.57893913618482   10.50683469704476   19.03197231872456

