35
CSD_code = TECLOF | q = 0 | S = 0 | Stoichiometry = C18H10Br2N2O2Pd | MND = 4
Pd        2.17489582934742    0.00006157405501    7.93680449445559
Br       -0.86135493591812    3.86586000996879    6.73446157823203
N         1.18823418051813    0.11332583526107    9.64688079257648
O         0.98646786925334    1.54132706084950    7.41357351220702
C         0.52653504465166   -0.39786566089722   11.87325678707444
H         0.67035079705498   -1.02232469859221   12.74058265257737
C        -0.57882120063887    1.40031537170605   10.71931008985213
C         1.31913167704507   -0.61833339327948   10.73673408057307
H         2.06988192963718   -1.40076702134574   10.71448227588700
C         0.26435088665969    1.10753482600563    9.61673075977991
C        -1.57853669706312    3.16506945186039    9.42006343743686
H        -2.28902967960322    3.97176997845103    9.31955364677878
C        -0.41403467627880    0.60001146184535   11.86949054630221
H        -1.03353139692158    0.78514385587835   12.73466355169653
C        -1.50495519855056    2.44997639253242   10.59200613913915
H        -2.15454316972709    2.68816914788562   11.41878191638595
C         0.19733594573511    1.84408899937134    8.39267050521748
C        -0.74697323216602    2.87000487266370    8.34377345634850
Br        5.21154345131102   -3.86531944237005    9.13946326615993
N         3.16141303973451   -0.11339502061594    6.22664861618167
O         3.36335808955465   -1.54115847863833    8.46008597165284
C         3.82290502348222    0.39752698502359    4.00014878497748
H         3.67897065538981    1.02184738739334    3.13274384033970
C         4.92853924777389   -1.40035486731464    5.15429380610663
C         3.03036568663039    0.61808564028996    5.13669464153007
H         2.27954405424939    1.40045128056263    5.15888743035627
C         4.08539518872148   -1.10751169211757    6.25687826665184
C         5.92852943436090   -3.16481053185909    6.45373719618734
H         6.63911808756185   -3.97141822596986    6.55432027239626
C         4.76358836877049   -0.60024223593785    4.00400375711373
H         5.38304688760176   -0.78543435454097    3.13881531939330
C         5.85480097340868   -2.44989176516134    5.28169702808171
H         6.50437776483058   -2.68811886933390    4.45492241557451
C         4.15252907524936   -1.84391729550517    7.48101936219738
C         5.09697099833382   -2.86970657812439    7.53001980257888

