95
CSD_code = TECNOH | q = 1 | S = 0 | Stoichiometry = C32H52CoN6O4(1+) | MND = 6
O        -0.57809186581329   -0.60881898708382   11.30033100423516
Co       -0.00000011198838   -0.00000059995841   12.98510009710165
O        -2.24299613361346   -1.52446670154807    9.51871374376548
N         1.18980648873470    1.22706809225086   12.10130375881307
C         2.83794293253387   -0.84064538589573   13.40912448375990
H         3.59807566295438   -1.62406689954052   13.32502867946418
H         2.67614765597959   -0.65066123881654   14.47142316475756
C        -0.65412784538230    0.06204313536812   10.20359361834884
C         0.11946811546112    1.21672882522507    9.93267148778194
N         2.38168530688703   -2.33356119795146   10.32148624147944
C        -1.54166393047700   -0.39973445794071    9.17622266219941
C        -1.63880921469946    0.27405962707985    7.98374061754063
H        -2.31393617887119   -0.06507555384303    7.21469765200046
C        -3.12195584162264   -2.07511573183507    8.56632705488676
H        -3.92608090849331   -1.37766433634744    8.31237735051846
H        -3.54804201879142   -2.96018841625386    9.03553784526891
H        -2.59313377718385   -2.36752968769413    7.65424179410598
C         1.30635058893993   -2.70951886871520   13.15216224513200
H         0.27125195869385   -2.92618459883276   12.88505005599206
H         1.42439282858264   -2.84192022885810   14.23134366275935
C         3.81953842136154   -2.28606462721649   10.11180403706131
H         4.34479951290333   -2.45456226378565   11.04927421812505
H         4.09381792750987   -1.30279116322178    9.73193011096891
H         4.15636337066317   -3.03984267513036    9.38734362453712
C         1.69038225823058   -2.05268792592887    9.07403704207175
H         1.93604717771684   -2.77824297222795    8.28749042009287
H         1.96737032762825   -1.05796883651902    8.72635748744182
H         0.61707579809550   -2.07051479973984    9.24563521989210
C        -0.86647466661193    1.41849713134956    7.74264048603241
H        -0.96493673152815    1.92560515196808    6.79657067091511
C         1.95900196060374   -3.61800592949035   10.88029343796109
H         2.47297659323011   -4.45451533268749   10.38191448619578
H         0.88786531486823   -3.72507370310050   10.69416572648873
C         3.37861771989977    0.41610323775564   12.73583846081729
H         3.59269288575084    0.20138641785842   11.68607479568690
H         4.31029296623139    0.70221862088590   13.22504385600327
C         0.00170387157896    1.87645734911404    8.69233239497186
H         0.60348221887686    2.75407949043085    8.51022733420250
C         1.08443571976067    1.63874073938423   10.88457630617352
H         1.81720251081388    2.36084446439527   10.51754397333427
C         2.19206424533589   -3.70098746517143   12.38969595050321
H         3.24601217874708   -3.55004238005121   12.62150138344442
H         1.93370688597699   -4.70743853852909   12.72153728369041
C         2.39517312389802    1.58758183464386   12.81559004907420
H         2.15173381857230    1.78435933614829   13.86041221222117
H         2.85460774908497    2.47854031763939   12.37226351587507
N         1.57875162049523   -1.30484879380806   12.80358819536812
H         1.74633569933886   -1.34879656574046   11.77611192947220
O         0.57809152912419    0.60881801973845   14.66986909650851
O         2.24299438499200    1.52446709450162   16.45148746549994
N        -1.18980656729030   -1.22706915340496   13.86889637410986
C        -2.83794356414584    0.84064404331349   12.56107600210152
H        -3.59807640230451    1.62406542813291   12.64517200908650
H        -2.67614867234144    0.65065978429587   11.49877727735652
C         0.65412738037682   -0.06204376644689   15.76660672760289
C        -0.11946819680321   -1.21672974601470   16.03752872189381
N        -2.38168322415715    2.33356285269718   15.64871329950875
C         1.54166248342694    0.39973457016440   16.79397817520265
C         1.63880704454678   -0.27405896910387   17.98646062320899
H         2.31393307902235    0.06507705349969   18.75550402231709
C         3.12195377081174    2.07511632717069   17.40387431477541
H         3.92607823764862    1.37766463977775   17.65782518595190
H         3.54804087242290    2.96018835122927   16.93466309536343
H         2.59313124459691    2.36753137851765   18.31595895572297
C        -1.30635105589323    2.70951756396052   12.81803642720003
H        -0.27125243273791    2.92618356757874   13.08514839246104
H        -1.42439341758897    2.84191806603216   11.73885491696329
C        -3.81953610492830    2.28606525355836   15.85839686738833
H        -4.34479818394130    2.45456181527596   14.92092704950414
H        -4.09381441530145    1.30279181269606   16.23827171895292
H        -4.15636100866966    3.03984352334879   16.58285707071120
C        -1.69037876076008    2.05269148591421   16.89616211994569
H        -1.93604371920824    2.77824703421678   17.68270828106287
H        -1.96736546850034    1.05797243092277   17.24384287808455
H        -0.61707249163709    2.07051935169428   16.72456290784145
C         0.86647336129092   -1.41849712942532   18.22756035213630
H         0.96493498918596   -1.92560481610837   19.17363039658310
C        -1.95900149320064    3.61800734754179   15.08990435159374
H        -2.47297665651089    4.45451684482407   15.58828260431049
H        -0.88786485055313    3.72507643373756   15.27603131870745
C        -3.37861792021902   -0.41610462474189   13.23436227708617
H        -3.59269274005360   -0.20138782524789   14.28412601847254
H        -4.31029329763530   -0.70222014481459   12.74515722544559
C        -0.00170427814422   -1.87645805826322   17.27786796270954
H        -0.60348232599522   -2.75408043858711   17.45997288462641
C        -1.08443540252800   -1.63874209993058   15.08562371092679
H        -1.81720174550552   -2.36084634563277   15.45265592103198
C        -2.19206470186684    3.70098681813021   13.58050189645393
H        -3.24601270074661    3.55004098140356   13.34869724590917
H        -1.93370793114525    4.70743755921814   13.24865908930705
C        -2.39517322980938   -1.58758312577935   13.15461030344341
H        -2.15173424424309   -1.78436058331165   12.10978806568251
H        -2.85460765654970   -2.47854168133176   13.59793693278908
N        -1.57875205151455    1.30484778177059   13.16661165998052
H        -1.74633565587873    1.34879638524838   14.19408797794332

