55
CSD_code = TECREA | q = 0 | S = 0 | Stoichiometry = C28H20N2O2S2Zn | MND = 4
Zn        5.41970072023482    0.64737530153218   10.17392748835785
S         3.04693911888350   -2.51297713540284    8.08236368317044
S         3.54783074961896    4.64472557096637   10.88700716195456
O         6.69687086893906    0.29407878198689    8.94401508322309
O         5.80926842825784    0.67933305219520   11.93948125519604
N         4.15402222072781   -0.71401195032300    9.56150095652741
N         4.58910009193182    2.41787506097737   10.10826927732331
C         2.44026283577006   -0.37135904553598   11.29167301571270
H         3.03490919507749    0.36065129310489   11.81617769191161
C         1.19129073869626   -0.74374459788471   11.74323036230759
H         0.79252013559803   -0.28791459484905   12.63662507379509
C         0.43657940503065   -1.70030291839244   11.06778215722202
H        -0.53752686778959   -1.97334739713380   11.44335733126835
C         0.91908166035412   -2.30832437847029    9.92459973023421
H         0.34357616348068   -3.05226744693443    9.39714369302293
C         2.17236027943875   -1.93711037747189    9.46938761655566
C         2.94108616994119   -0.97105418085384   10.14026073177438
C         4.38126197003011   -1.42767606580577    8.48317552934151
C         5.54430427198216   -1.39076683864959    7.66552086637910
C         5.60706718777598   -2.24102553963160    6.54132506262633
H         4.76365113632994   -2.88670527803536    6.33946865249848
C         6.69741397292963   -2.26319016983114    5.71970406685384
H         6.72681585494974   -2.92185045253864    4.86587557492403
C         7.78252054306884   -1.42415729781523    5.99512941829096
H         8.64537485795976   -1.44457913211575    5.34444760348373
C         7.77282416684299   -0.57766427675467    7.07264389032779
C         6.64856058100018   -0.53001505435347    7.95208953853170
C         8.92088256675293    0.33046905843095    7.38418268565328
H         9.73404278928347    0.19010905516820    6.67718095799198
H         9.27888775987446    0.13813210897803    8.39429979573790
H         8.59127450164917    1.36839952793779    7.35504993087652
C         5.49943414910856    1.57792655419833   12.81243945324598
C         6.59242772623639    0.06306692432374   14.46700185337106
H         6.82748955394663   -0.01745732461623   15.52487415420969
H         7.51233318711464    0.01987805757243   13.88588778486084
H         5.98428355246723   -0.78856697378696   14.16470151629828
C         5.86642498434983    1.33803515730626   14.17165590282787
C         5.56011462098008    2.24749098159947   15.14981376538399
H         5.84975409421449    2.04543205414451   16.17138314632264
C         4.87963390003375    3.43327196578034   14.85299114426570
H         4.64941919626996    4.13540313167389   15.63894860607880
C         4.51414782943472    3.69178858342094   13.56302261957514
H         3.98979038906492    4.60598588228979   13.32159794425055
C         4.80491022105419    2.79135350249264   12.51643121520130
C         4.40175500848426    3.12991391179200   11.19527157824804
C         3.46857927592399    4.24694501503707    9.19706381345908
C         2.90842805500134    4.96910989559638    8.15762274480101
H         2.43643364107217    5.92052964044562    8.34441080863963
C         2.97568189048723    4.43500191625054    6.88500583516793
H         2.54690116659892    4.97920906467240    6.05767610871468
C         3.59213943588551    3.20696900019322    6.65539332159689
H         3.63521689880516    2.81501249449670    5.65066981583333
C         4.15091693110956    2.48489307839287    7.68924489434242
H         4.64002340845767    1.53859473734011    7.51666299006010
C         4.08960680927830    3.00570806688843    8.97813310017439

