57
CSD_code = TECRUQ | q = 0 | S = 0 | Stoichiometry = C28H20N2O4S2Zn | MND = 4
C         3.84146988248928    5.87187863708127   -5.02523742442173
H         4.33381604237923    5.54696736470079   -5.94052892801997
H         4.28727229570793    6.81387842577338   -4.69104529495910
H         2.77559521309830    6.02265282081146   -5.22350370358786
C         7.61171031671929    0.63942295895229    6.59189330805200
H         8.28078430887985    0.28506265995522    7.37440528026209
H         7.34226016721350    1.68171076041643    6.78719322784033
H         8.11487075466479    0.57062196569433    5.62299052005425
Zn        3.19751637839962    2.60228326471584    1.82698682039534
S         1.19812874170776    6.60061679463597    1.62851459206175
S         0.81275172351494   -0.84818029965695    3.37135348361662
N         1.94204481429663    1.14909297943254    2.19127045206028
O         4.43983182153319    2.11481933265106    3.05630602030012
O         3.66720805578462    2.90756187815125    0.10465684703550
N         2.29291707172372    4.31645823822968    2.11721117505921
O         4.05461722851094    4.83814502723741   -4.09301766722708
C         0.75224750090348    0.96231740909217    1.54227623865333
C         2.62862097381990    5.06687927724649   -0.18230613345843
C         3.82027653304188    3.93381288526309   -1.96596404132243
H         4.38730567539621    3.08453797861678   -2.31137461863110
C         1.70114133348190    4.69984863211238    3.28960981842553
C         3.27509848444085    0.23729242206682    4.02351113871223
C        -0.02492925588211   -0.09348552134449    2.04766450533526
C         2.13688195027791    5.18347922774826    1.14331503428619
C         3.33162026856378   -0.76027936044928    5.02009941074548
H         2.50051535153206   -1.44670538520630    5.10217465702209
C         4.37319877704933    1.15088837439251    3.90852493024545
C         2.14448948534554    0.29566910787570    3.17027131148617
C        -0.95021574252422    1.39543269762122   -0.06946969745363
H        -1.32686616112478    1.96758409506450   -0.90362553833450
O         6.48281684452088   -0.20155808696227    6.64510430711805
C         5.45425168596144    0.99222126196810    4.80501758065693
H         6.26229644730169    1.69588960329491    4.68635379031158
C         1.03735826943825    5.93679010055605    3.22716953666829
C         2.37866925229452    6.10596640164881   -1.09675437675272
H         1.81159473273936    6.96075228661054   -0.75417669132579
C         5.47831773112386    0.00449869708346    5.76200320005481
C         4.38860904420438   -0.88586712331487    5.86923971877698
H         4.42217216264163   -1.65288468353914    6.62480125645508
C         3.38170443685297    3.92765907397038   -0.62867785804178
C        -1.71364619462919    0.34897502191837    0.44251750014693
H        -2.67255470415188    0.12297142373288    0.00208053001864
C        -1.25844650160411   -0.40829803164252    1.50527299210254
H        -1.84036781490775   -1.22315575463156    1.90558631499993
C         0.28009327539261    1.71101187017937    0.46881843309050
H         0.88365576234048    2.51121842412971    0.06889262161737
C         0.39746045895980    5.73669790353705    5.50183142570355
H        -0.10573546257925    6.12639595181639    6.37329737083059
C         2.82211815990156    6.08143294344756   -2.38983995188495
H         2.60101347641127    6.90868703553403   -3.04370786358146
C         3.56244836282407    4.97265155942520   -2.83757080902135
C         1.70894424478113    3.98391725535598    4.48270642428394
H         2.23105311070188    3.04120956214849    4.53744239327028
C         1.05521350312898    4.51119297223730    5.57701478423029
H         1.05516094945187    3.96564149568922    6.50834150568172
C         0.38307199954877    6.46392278574869    4.32671298593451
H        -0.12005322360382    7.41539540117395    4.25996715441993

