37
CSD_code = TECRAV | q = 0 | S = 0 | Stoichiometry = C9H18CoN3S6 | MND = 6
Co        7.44460320637388    4.29837585747268    8.23596020349411
S         7.17139021366749    6.26328016807769    9.42489015324536
S         8.70933732131240    5.81792808849240    7.05506697659974
N         8.56990877884962    8.18522246788903    8.27675078644623
H         8.28414144651351    8.71917723242849    9.08596781851305
C         8.20908237234441    6.90241403136696    8.25110984447777
C         9.55494421812620    8.76551877494940    7.39395289184611
H         9.28143471071467    9.80919998506284    7.22117680623694
H         9.50780424642585    8.22296570603450    6.44694562346228
C        10.96125121399423    8.66944730295380    7.97872620436017
H        11.01935142250576    9.19740863990503    8.92795893181445
H        11.67913743621260    9.10605845219808    7.29063144583387
H        11.22295186795604    7.62712768469751    8.14184234671108
S         5.88010756080771    3.07964057763921    9.42582905700567
S         9.28271932892015    3.55329071811938    9.42551957280685
S         5.49585010153781    4.63332940966828    7.05555574629103
S         8.12865200704693    2.44292561788908    7.05591636500901
N        10.24994315814367    1.38228543283705    8.27705193339588
N         3.51608968375376    3.32884484325828    8.27815903908900
H        10.85541974321660    1.36339448701496    9.08615146774439
H         3.19690991483447    2.81438981330876    9.08750922561786
C         4.80735281740468    3.65805727946784    8.25204985737383
C         9.31846381799510    2.33524057252207    8.25155075596347
C        10.26126562607999    0.23935991092346    7.39389549459715
C         2.52077301510104    3.89069113384650    7.39494833928488
H        11.30216654339347   -0.04509451879568    7.22205825641562
H         1.75309014183838    3.13212351566418    7.22423275883350
H         9.81576342951807    0.55157575388402    6.44654201821334
H         3.01366983976013    4.11900298793913    6.44713241018905
C         9.47488161302707   -0.93110360887815    7.97742086414881
C         1.90199996684214    5.15817452329009    7.97763993440860
H         9.90238533355522   -1.24565830564044    8.92684811971140
H         1.41624682763503    4.94672904506178    8.92763895823134
H         9.49494326793595   -1.77077513678883    7.28894596720349
H         1.16472090392294    5.56066374510798    7.28924511929148
H         8.44112909532778   -0.63700970113960    8.13977502606630
H         2.67441780741165    5.90579751227013    8.13870368007251

