25
CSD_code = TECSOK | q = 0 | S = 0 | Stoichiometry = C9H8AgNO5S | MND = 3
Ag        8.40115117789014   -0.90293703432516    1.63914604973856
C         9.33623337079850    2.16256925059103    1.66364779665947
C         9.43618415359154    3.53239834097809    1.61068705877758
H         8.53757866171069    4.12673769447731    1.49921297531762
C        10.68427380083723    4.16381356230454    1.68829704052715
H        10.77785489848192    5.23603347401655    1.62276219134771
C        11.82144035032492    3.42656161515626    1.84918875039909
C        11.75219469028000    2.02452819202717    1.90012081130799
C        10.49395617727393    1.35979834581189    1.80035561469814
C        12.91453625278899    1.24641229863031    2.03259518722241
H        13.85396036357545    1.77375695594892    2.12851495878538
C        12.79350134768054   -0.12240192798735    2.04688844328555
H        13.65739876906001   -0.76069237770003    2.14005567679765
C        11.52817055622713   -0.69758535664014    1.93633552986506
H        11.42275165419728   -1.77656863961635    1.94311045218569
N        10.40516797269623   -0.00173585319994    1.82185142492515
O        14.29147845896678    3.70605682588216    2.71178287860701
O        13.78296773727332    3.61583216656522    0.32103859274169
O        13.20624800326394    5.62217472353637    1.62350509193826
O         8.09736560658222    1.54014626808119    1.57495088959747
H         7.43410934917823    2.23350133906908    1.47166659214994
S        13.47136365628350    4.20122669088177    1.61868303012153
O         6.55768694099730   -2.27818259408205    1.50364949869235
H         5.65439567985198   -1.97148028400051    1.39854601967851
H         6.54283037019037   -3.23746367640619    1.48950744463285

