185
CSD_code = TECSEC | q = -1 | S = 0 | Stoichiometry = C72H102AgO6S2Si2(1-) | MND = 2
Ag        0.00024106075870    5.73860474849707   -0.00015203858946
S         1.62808115488049    5.26075784695593   -1.71149437993005
Si        0.50275173307747    4.77349211988673   -3.36789142955415
O        -0.90901884220156    5.57097047766977   -3.64998501185330
O         0.01753834849733    3.20772437264372   -3.32361719389397
O         1.48043973271859    4.94062918264906   -4.67975629241665
C         1.88939138970100    7.73800631042517   -4.98053428134098
H         0.95526665336739    7.17870733652336   -5.04720991426252
C        -2.00405919086633    8.93588708070335   -4.47314504387792
H        -2.27166285871716    9.85712485203333   -3.97994031072064
C         3.56189916778492    3.02074878639425   -4.29800779339846
H         2.48324885823487    2.86048978760768   -4.30823472721429
C         3.82280012988914    4.47698149334197   -4.59181018402350
C        -2.28508690403312    2.73674128593529   -2.83470260427763
C        -2.01944623469956    8.88141721575751   -5.85495219299791
H        -2.27930292078126    9.75954961821011   -6.42992243605958
C         5.12440245441270    4.94665481670225   -4.69255016994462
H         5.94715161608220    4.25559433923237   -4.58112168544954
C        -1.16513128851395    5.24711311287857   -6.49419926992060
H        -0.85591514572486    4.49848742058926   -5.76400256377447
C        -1.65489576571967    7.82894010795763   -3.71610762892609
C         2.76914377341866    5.38523450224631   -4.72830878950095
C        -1.29244460123697    6.64693512307334   -4.38305920329321
C        -1.73613562262208    7.69225796069812   -6.49448671567060
H        -1.79581129059934    7.64126571141300   -7.57201180345069
C        -1.75881105292490    7.82520714898182   -2.21208157478684
H        -0.95242131670327    7.18802236875432   -1.80521881623844
C        -1.38007614242159    6.55781871065458   -5.77711311111170
C        -2.15340307326736    3.42017841420268   -1.49714116501444
H        -1.65194176374225    4.38501116272663   -1.65850037478374
C         3.02349446013304    6.74603010370240   -4.92909881708694
C         4.33900151858165    7.17438999701004   -5.02254976858199
H         4.54442399479873    8.22441643754236   -5.16929463279331
C         4.19766971833024    2.11709298887271   -5.35598605948205
H         3.80179746568974    2.34990381277326   -6.34276473184212
H         3.98716261326136    1.07314779390234   -5.13198258036929
H         5.27746252381726    2.24648905188055   -5.38184640730061
C        -1.16880998516371    2.63359247820022   -3.67435976911352
C        -3.47107462624205    2.14639807769767   -3.24852071055405
H        -4.34716666056470    2.21569539075535   -2.62383747136768
C         1.86231944109520    8.55020594986262   -3.68453346178359
H         1.81147116344244    7.87900212766360   -2.83001648438672
H         0.99231588647278    9.20355029996374   -3.67279707650575
H         2.76203323041681    9.15518361048555   -3.59040156841759
C         0.04570530671621    1.68150339372227   -5.65230303934060
H         0.64782583862636    2.59256463994080   -5.58586752785480
C        -0.17411878506818    1.36476634913103   -7.12940117611510
H        -0.59705427907804    0.37017468962793   -7.25963782427841
H         0.77943558863284    1.39400390149259   -7.65436472665739
H        -0.84113921568549    2.09038294859829   -7.58837667994060
C        -1.25214022684371    2.57992513959065   -0.58612440393666
H        -1.72521867913754    1.62491283124215   -0.36031849412991
H        -1.07980444631560    3.12108108980673    0.34745763355945
H        -0.29726684534080    2.39120314508904   -1.06932118416493
C        -2.43042579843744    1.32440928897643   -5.23907349953625
H        -2.49632089411533    0.75881144957878   -6.15576480699844
C        -3.09503857702479    7.17896770081975   -1.82697780362157
H        -3.92243783314067    7.82648959721868   -2.11543475001237
H        -3.12701817645798    7.00862339298236   -0.75299052103540
H        -3.21005522180522    6.22582757412267   -2.33524683728325
C        -1.64668706068964    9.19809042881756   -1.55777126969347
H        -0.73548890056844    9.70816836416189   -1.86207848145173
H        -1.62945033661221    9.06648656325269   -0.47883287230212
H        -2.50331325256338    9.82263180023084   -1.80520393036482
C        -0.07397225885274    5.34670552936092   -7.55991529855174
H        -0.32490215072421    6.08884808270610   -8.31538683997057
H         0.05604304845154    4.38527497493867   -8.05319888879039
H         0.87103562524077    5.62439279223476   -7.10013349115646
C         5.38806664646706    6.28307393902379   -4.91599065304190
H         6.40859826536548    6.63208127297144   -4.99005128834803
C        -3.55310001436715    1.46281965057106   -4.44657809217485
H        -4.49004800052986    1.01868177397334   -4.75324680590163
C         1.96353245121757    8.65606971102743   -6.20090436832438
H         2.81685525753245    9.32794907491476   -6.13898159150051
H         1.05691343491572    9.25500540601068   -6.26005961269111
H         2.05029975146422    8.07107863140413   -7.11442773225070
C        -1.22568089915230    1.90078479281723   -4.86643177516640
C        -3.47385717369582    3.69683796483771   -0.78425482206632
H        -4.17007633107653    4.22713509569956   -1.42943705642965
H        -3.27712945512843    4.31838491329666    0.08706884211781
H        -3.93708892107526    2.77009586389774   -0.44932666940389
C         4.06688530092739    2.67201359979593   -2.89690155408211
H         5.14588644582597    2.79401080529583   -2.82940260477782
H         3.81644320390079    1.64103384303642   -2.65291077794543
H         3.59742349432842    3.32813242426444   -2.16801124118356
C         0.82108885740116    0.54041336525027   -4.98385571419640
H         0.21544543727978   -0.36526003792819   -4.96995158834471
H         1.06849599638217    0.80542593094594   -3.95917596424683
H         1.74147212812633    0.33660322170103   -5.52681579671498
C        -2.49214665961742    4.77912857194694   -7.09823344863724
H        -3.24295115755173    4.67548024309683   -6.31749628197272
H        -2.37040339855049    3.81169114344116   -7.58147975463970
H        -2.85561526056557    5.49108466916786   -7.83704297414117
S        -1.62836711282443    6.21663829627950    1.71179397501802
Si       -0.50272636984373    6.70387200865082    3.36786590762478
O         0.90901599767371    5.90636296673490    3.64999896791161
O        -0.01747900127022    8.26961975730336    3.32349357507861
O        -1.48043939840952    6.53685054799043    4.67971431407257
C        -1.88946345385870    3.73950377109392    4.98063228753671
H        -0.95532522811873    4.29878865809621    5.04726161941802
C         2.00394395080732    2.54147228833270    4.47335708266518
H         2.27151427343806    1.62019393591993    3.98020809271492
C        -3.56186354915194    8.45676503978717    4.29792076122021
H        -2.48320761994163    8.61699692060664    4.30812310586831
C        -3.82280259039101    7.00055002964400    4.59177638245568
C         2.28517188522850    8.74050210412524    2.83462254764538
C         2.01934557475952    2.59602288287034    5.85517286420096
H         2.27917988184628    1.71791642507362    6.43020325736078
C        -5.12442072873753    6.53090770051362    4.69252976283303
H        -5.94715643673384    7.22198438717730    4.58109737095092
C         1.16513165674725    6.23037650831762    6.49421301782195
H         0.85594479846621    6.97898764873016    5.76398190238253
C         1.65480788365486    3.64838095278874    3.71625035221222
C        -2.76916533992075    6.09227555445469    4.72829088971483
C         1.29240321167488    4.83042629418952    4.38314327617113
C         1.73606683179106    3.78522698916163    6.49463827025045
H         1.79575104150169    3.83628227650008    7.57215363410923
C         1.75867417183486    3.65204701251372    2.21221502411578
H         0.95232132079593    4.28924270518232    1.80529425190278
C         1.38003928819621    4.91962611828446    5.77719325181435
C         2.15349841948781    8.05701385165746    1.49708879387419
H         1.65197720097412    7.09221995846494    1.65847773313575
C        -3.02354843835380    4.73149578227744    4.92914649271732
C        -4.33907068167077    4.30316905793852    5.02260038787623
H        -4.54452002939975    3.25315609729218    5.16939416774454
C        -4.19759865198916    9.36048004377401    5.35586740867060
H        -3.80171057867349    9.12770187848925    6.34264670155876
H        -3.98707228140953   10.40441108796955    5.13180901704001
H        -5.27739355623718    9.23110294550053    5.38175500976819
C         1.16888215206955    8.84372966862780    3.67424734498430
C         3.47117731468508    9.33078980169424    3.24845690398867
H         4.34728757855815    9.26141921233589    2.62380898438544
C        -1.86242073281029    2.92722449307604    3.68467848570229
H        -1.81156136135714    3.59836312474939    2.83011069979366
H        -0.99243544922853    2.27386210441177    3.67297129317528
H        -2.76214324641009    2.32225309394076    3.59059176511035
C        -0.04564569003556    9.79596399893669    5.65212088846866
H        -0.64780012963242    8.88492156764669    5.58571906611461
C         0.17413812445078   10.11276729723064    7.12920605042138
H         0.59710497169723   11.10734651798984    7.25939948192102
H        -0.77943014805340   10.08359009426978    7.65414036425767
H         0.84111439409924    9.38715113498168    7.58823280477132
C         1.25229287457557    8.89728456731869    0.58602858403549
H         1.72544750369790    9.85225920247099    0.36019613862762
H         1.07994503344237    8.35609471046624   -0.34754724077128
H         0.29741795481369    9.08609822505230    1.06920891736453
C         2.43051471534746   10.15292427824115    5.23894768059100
H         2.49641480391831   10.71857128231268    6.15561219491812
C         3.09494410100950    4.29818614926137    1.82708063821135
H         3.92232669387693    3.65064048113974    2.11554698491467
H         3.12691853802376    4.46848359600001    0.75308601477440
H         3.21001565444389    5.25134335368628    2.33531054723233
C         1.64652600148945    2.27910005080169    1.55802671147717
H         0.73530088073902    1.76907213130751    1.86234922134703
H         1.62930353667696    2.41064507875686    0.47908199802639
H         2.50312031926860    1.65451721998671    1.80548169581411
C         0.07396619455267    6.13088275334071    7.55993312572651
H         0.32486838977770    5.38875981821730    8.31542990777400
H        -0.05601301837276    7.09233757653986    8.05317991700381
H        -0.87105086975391    5.85321059401781    7.10016453489738
C        -5.38811549534661    5.19450188627846    4.91599053916195
H        -6.40865320832920    4.84552846856313    4.99011341727321
C         3.55320534184029   10.01441217315299    4.44649508807288
H         4.49016820671217   10.45852583714462    4.75317232423122
C        -1.96360638862560    2.82151583496914    6.20105967762877
H        -2.81695218125837    2.14966105427098    6.13919868660288
H        -1.05700391479970    2.22255453492155    6.26022624108942
H        -2.05033600584630    3.40656913830159    7.11454774372558
C         1.22574770737102    9.57660141733150    4.86628728168633
C         3.47394643042730    7.78024713790816    0.78424231518727
H         4.17010810888148    7.24993624168532    1.42946294800426
H         3.27721228625375    7.15867987012437   -0.08705872793949
H         3.93723445440028    8.70695133495749    0.44929972417777
C        -4.06685391659712    8.80544976407775    2.89680213302809
H        -5.14586049106897    8.68349221575600    2.82932605963540
H        -3.81638783871839    9.83640740170842    2.65275839260582
H        -3.59742920935532    8.14929004467264    2.16792250684115
C        -0.82097087584225   10.93704129046107    4.98358122744011
H        -0.21529410531240   11.84269430762221    4.96964881437888
H        -1.06834895487415   10.67198427376231    3.95890162036429
H        -1.74137137729809   11.14091183048647    5.52649898677634
C         2.49215973236185    6.69835260184830    7.09822547722080
H         3.24297095239320    6.80192640059140    6.31748907653500
H         2.37045596925070    7.66582133203387    7.58141427560216
H         2.85559667431334    5.98642687121895    7.83707529415738

