53
CSD_code = TECTUR | q = 0 | S = 0 | Stoichiometry = C18H18O16Zn | MND = 6
Zn        5.27721541734643    6.32394939139176    3.64650362266632
O         3.39508529782432    6.36505895728506    4.18743277765077
O         5.86771060554834    7.08659470458789    5.48346730586396
O         3.08561444017295    3.54132647169997    5.72462826303754
O         5.39747951730343    4.34056385889322    4.41443271857572
O         1.56308859342859    2.77600890760341    7.15009924506479
O        -3.03043843707932    4.05232690649492    6.43508299902847
O         3.57330593325666    6.36280146119668    6.41186690837127
O        -3.55824283643410    6.08883545876681    5.69780320542753
H        -1.54834778137045    7.44645461559236    5.03353334647529
H        -0.68264462673299    3.53427105702758    6.50157425901325
H         0.88716839540414    7.87593606332908    4.73978329451307
H        -3.99293093201743    3.97573624430631    6.52734329771535
H         6.58359422246300    6.53586750765839    5.81216702990041
H         5.40388849689403    3.77030100125969    3.64012372520631
H         5.05292546886695    6.84432566497116    6.02277802770706
H         2.23849836196155    2.09924698932655    7.31714184971142
H         4.58922279910229    4.10559793404157    4.90559243398987
C         1.46177062332156    5.94992429052932    5.45567597178196
C         1.01757977207635    4.71792951187159    5.94751941453001
C        -0.34228804620929    4.48402610681435    6.12100187432805
C        -1.25955541162504    5.47341654871498    5.79116781456290
C        -0.81463521590900    6.69592024071473    5.28680237995236
C         0.53632007892437    6.93050061509668    5.12372416012507
C         2.94571657146152    6.24244502039335    5.35341849341503
C         1.99830283808894    3.65454068019963    6.24797964227081
C        -2.71694837725838    5.26592021631487    5.95802254648748
O         7.15959906850392    6.28411748395915    3.10557544870178
O         4.68680062380525    5.55844528240924    1.81116700946119
O         7.47342500980159    9.09948662684620    1.56947072422609
O         5.15785608118288    8.30609935955030    2.87723709610570
O         9.00148254733310    9.87091837272655    0.15333945086854
O        13.59076511174890    8.58062427288067    0.86450915992988
O         6.98213774986103    6.27481117164072    0.88106179947171
O        14.11366341148266    6.54042300628563    1.59499636608934
H        12.10059761465372    5.18462033931430    2.25263143713621
H        11.24376903780547    9.10303107870796    0.79611577781119
H         9.66423177815772    4.75967715306605    2.54501350117651
H        14.55355211953024    8.65578908692135    0.77415169075445
H         3.97183888393491    6.10904851381226    1.48027152856249
H         5.14836611939153    8.87789976113648    3.65044508309432
H         5.50238463438575    5.79811665545097    1.27157967725095
H         8.32738452857684   10.54940440854384   -0.01198385196315
H         5.96774939010593    8.54002651177329    2.38831786555141
C         9.09390843153772    6.68951191934977    1.83581681881219
C         9.54085717942125    7.92180296026068    1.34721540573049
C        10.90129168696849    8.15306136672957    1.17424004554561
C        11.81632193908587    7.16076971675892    1.50143210620981
C        11.36859340051211    5.93760783577484    2.00173208128794
C        10.01712890837291    5.70560041650671    2.16414895243971
C         7.60938289562830    6.40012160345327    1.93910939562407
C         8.56246106020729    8.98796901358597    1.04937562757599
C        13.27429501918639    7.36588965647143    1.33666319517253

