46
CSD_code = TECVUT | q = 0 | S = 0 | Stoichiometry = C22H17O5PW | MND = 6
W         0.51103317006716    2.62116665142452    9.98269575100136
P         2.38113824081058    4.17251006791978    9.64838572843810
O         2.56981420615473    0.29145665628681   10.43590255447551
O         0.65164282010306    3.30217471175696   13.04727999669891
O        -1.51309606704922    4.97928473077739    9.52488987007766
O         0.47473302756022    1.99277614927054    6.90694245170843
O        -1.86736623394720    0.64408180741892   10.44473512631016
C         2.53948454936013    5.27923873990907    8.21903965961808
C         3.53832615161988    4.11253631707938    8.25547090213386
C         4.02316427435398    5.54285620586609    8.27895230692590
H         4.41515902121564    5.91339407239458    9.22702497867793
C         1.50915323373316    5.74205789759731    7.24333958638870
H         0.87328505569850    6.50013211681368    7.70061355541463
H         0.87432823754399    4.91349705497827    6.92601363069577
H         1.98149624256503    6.18187580309730    6.36665076054910
C         3.86672714180513    2.98355432292872    7.32960868269582
H         4.87189861651198    3.10519352041105    6.92807412135632
H         3.16550462457972    2.91419519196928    6.49733014318498
H         3.82667674365747    2.04079492558524    7.87599090497913
C         3.20053664910555    4.91674145068488   11.09243457792845
C         4.42063895222259    4.43610051493782   11.55577467977757
H         4.93418788818263    3.66559641840658   10.99532685283935
C         4.96289570679875    4.94920103295586   12.72001659871928
H         5.91207101805583    4.58108435176668   13.08088190467913
C         4.28560817192892    5.93051699406594   13.42649637170544
H         4.70947488260714    6.32572302895609   14.33768785487450
C         3.06283785293628    6.40138876619341   12.97382933220574
H         2.53587467947503    7.16136209051364   13.53159386061617
C         2.51559210301693    5.89134694580026   11.81141831744781
H         1.55671628581259    6.24006728914222   11.44735594318117
C         4.73780628558442    6.13171471271234    7.12382051665600
C         4.50328673695049    5.74681858853586    5.80651010595576
H         3.78014344875893    4.97933519637692    5.58270074422886
C         5.19744960412991    6.33831866018286    4.76580629800060
H         5.00190302546177    6.02687161348600    3.74997114288594
C         6.13742212532998    7.32156024917743    5.01923485399064
H         6.67747980436526    7.78053927384162    4.20472342398586
C         6.38133974942739    7.71111318423974    6.32549637763634
H         7.11398229385101    8.47669792398410    6.53446633295789
C         5.68831969765670    7.12134179437975    7.36537778949352
H         5.88274032150237    7.43050548857032    8.38298638741133
C         1.82113246795230    1.13689429328582   10.27087383072620
C         0.58459258548063    3.04811913927027   11.93723415891322
C        -0.78100841208722    4.12000816242458    9.69271591114040
C         0.48375292020628    2.21852738219071    8.02703317670988
C        -0.99947990105828    1.36662851043264   10.27469194400474

