46
CSD_code = TECZOS | q = 1 | S = 0 | Stoichiometry = C19H19N2NiO5(1+) | MND = 6
Ni       11.35346892799204   -0.14903042793926    1.73410839029331
O        13.40916650914395    0.26070824128350    1.53488973793001
N        11.51902982769666   -0.68421174719777    3.52928520760615
O        11.31062644010124    2.12871090040579    2.41254537681257
N         9.40063888606481   -0.32770823789083    2.02428561432595
O        11.02191081409042    0.25774328275774   -0.06195165575212
O        12.04618163585274   -2.27218713271083    0.87337463931240
C        11.53067192732624    1.26084108223785   -0.66458809582761
C         9.17066439316790   -0.61724908188192    3.32107314228304
C        10.32084651050004   -0.82415341063600    4.13454954459834
C        11.05669691340265    1.50262222884350   -2.05466340773566
C        10.17358049697146   -1.14028338801010    5.49923803434824
C        10.15042936050168    0.64045027944703   -2.66691853977317
H         9.79118994239060   -0.22436782056570   -2.12895439743442
C        12.60833871008170   -0.85846923149610    4.24919238863256
H        13.55612789139636   -0.72995645902690    3.74465642859964
C         7.88006301729224   -0.70847799189149    3.87722662359661
C        11.53450929469065    2.61402548497731   -2.74319675040647
H        12.23749916066570    3.26948019683324   -2.25284527845275
C         8.37061171737276   -0.09815219425987    1.23770372620085
H         8.58744389268415    0.14210042971882    0.20583056050537
C        11.35222814202824   -1.32733004343587    6.24192189530949
H        11.29466277562932   -1.57288750742392    7.29137792744839
C         8.85528038374898   -1.24049422633155    6.03459825431555
H         8.75049828277855   -1.48343989797569    7.08081172435871
C         9.72654729728075    0.89294001717497   -3.95736209697357
H         9.02608728342381    0.22443483294032   -4.43455087467915
C        12.56484971392141   -1.18680209786732    5.60904812010521
H        13.48955144143135   -1.32136455901393    6.14658263987829
C         7.75987486238346   -1.03037527400663    5.26139913330435
H         6.76878959643469   -1.10135223071421    5.68245114326268
C         6.79667910321030   -0.46660837222789    3.01463898913166
H         5.78639689349681   -0.52056426186802    3.39115763319328
C         7.05001630810596   -0.15838944139477    1.69869194371991
H         6.24339259410733    0.03918356365696    1.01119017144208
C        10.20148768548761    2.00261042533600   -4.63995068321039
H         9.86772394119110    2.19643440701915   -5.64787642123722
C        11.10446067589041    2.86128819574480   -4.03306197913779
H        11.47315015711355    3.72384663952030   -4.56610293557889
O        12.38101339561608    2.00639293013260   -0.14847951729559
H        11.60605617130657    2.48889212318157    1.55681563706634
H        11.55522112307850   -3.03776462528469    1.18270711273730
H        11.99374804146382    2.37166772909080    3.04348662968439
H        13.28538081036839    1.02795609619748    0.91123601444936
H        11.85691366854649   -2.17591655469047   -0.06694301149085
H        13.85599338257061   -0.43409287076282    1.03857126053201

