49
CSD_code = TEDHUH | q = 0 | S = 0 | Stoichiometry = C26H18N4Ni | MND = 4
Ni       20.42799999281601    8.06924090459004    2.23003185273422
N        19.05489660526220    6.83216850817417    2.54514002648601
N        19.05621392026378    9.30639614278911    1.91517755464477
C        17.77409583644724    7.38143399949289    2.42709801090735
C        16.57830105920950    6.74056019803733    2.65460817584036
C        15.35014698156230    7.39783568405802    2.44695138739591
C        14.11514395836521    6.75557926162136    2.66812594588760
C        12.93569609692335    7.40791048645166    2.43598409722119
C        12.93799479113582    8.73169868833779    1.97141294998930
C        14.12033450606091    9.38353323498029    1.75324657828446
C        15.35212028132052    8.74023185142511    1.98751459646138
C        16.58166082383634    9.39750622811375    1.79070233864478
C        17.77544915714519    8.75623685905988    2.02635444253521
C        19.20727782234926    5.54549694652130    2.79714077704421
C        20.42799998937743    4.90179818738639    2.92437096155007
C        19.20782100269820   10.59420796196315    1.66846892248647
C        20.42800000935274   11.23902942995852    1.54433043517221
H        16.53437674276349    5.71809320488971    2.99744555513468
H        14.11570418154377    5.73471894558192    3.02358891084194
H        11.99355747820167    6.90806063585895    2.60713872554892
H        11.99819033494035    9.23184378508483    1.78877948869297
H        14.12783701974717   10.40465424589279    1.39853508519087
H        16.54002142018058   10.42027938315186    1.44869694735342
H        18.32255169956846    4.92494255846802    2.90092115394070
H        20.42799987016949    3.84205360855337    3.12086113309321
H        18.32330873533457   11.21535256192248    1.56687858621284
H        20.42800018190989   12.29970125518275    1.35279923345834
N        21.80110347708252    6.83216830555408    2.54514045224995
N        21.79978586323227    9.30639554641540    1.91517655512472
C        23.08190421889600    7.38143361783523    2.42709785018270
C        24.27769907126538    6.74056038584058    2.65460973828128
C        25.50585303816343    7.39783576851820    2.44695242988365
C        26.74085627128780    6.75558000622831    2.66812843820973
C        27.92030393564789    7.40791110864167    2.43598564067167
C        27.91800513915355    8.73169860392734    1.97141241782637
C        26.73566533468054    9.38353258450812    1.75324494917265
C        25.50387967062198    8.74023124159393    1.98751363483382
C        24.27433904683394    9.39750531768023    1.79070058398025
C        23.08055070301234    8.75623604285583    2.02635284308282
C        21.64872227416349    5.54549654615774    2.79713991322366
C        21.64817881573141   10.59420676075027    1.66846442768177
H        24.32162356398673    5.71809398755327    2.99744880541597
H        26.74029624865672    5.73472035890111    3.02359324800133
H        28.86244260707350    6.90806174389558    2.60714135289721
H        28.85780953403573    9.23184361968703    1.78877843914326
H        26.72816274633997   10.40465308358763    1.39853197195866
H        24.31597838906943   10.42027837729843    1.44869482142886
H        22.53344840742295    4.92494183959126    2.90091866024791
H        22.53269114515688   11.21535039543121    1.56686895374827

