47
CSD_code = TEDJER | q = 0 | S = 0 | Stoichiometry = C20H20Cl2CrN4 | MND = 6
Cr       -3.02381188986857    3.44207110800669   -4.26809774660273
Cl       -2.06724480349176    1.78809551648160   -3.02669342417779
N        -3.57036626517682    4.39122039246777   -2.58325301253600
N        -4.76386548863712    2.43760764845291   -4.26850447057124
N        -1.28383892880135    4.44752238030864   -4.26768213900429
C        -4.77838845565182    4.96153561030394   -2.45298367215566
C        -5.18933258471737    5.63240857726724   -1.31970085368966
C        -4.32760161658385    5.73080231133151   -0.23577034280448
C        -3.07743478583906    5.13954572017290   -0.35716489874027
C        -2.74458780946819    4.49396887728129   -1.53000654962110
C        -5.22820315382337    1.82701939659742   -3.16703965179967
C        -6.41501004528990    1.12497935039963   -3.12444703520967
C        -7.19597516819058    1.03635295828720   -4.26869083727862
C        -0.10790118363328    3.82582959460145   -4.44829237166692
C         1.10857561792817    4.47651185710305   -4.45227133535827
C         1.14633899333533    5.85205775983995   -4.26858959575103
H        -5.43376011346174    4.88923008470169   -3.31018712953661
H        -6.17413864375713    6.07172210776730   -1.28892874661069
H        -4.61819336027039    6.24645489884258    0.66598881919105
H        -2.36301914611037    5.17799786535777    0.45023520062593
H        -1.77978343427024    4.01650518475653   -1.63361092666956
H        -4.60284135262892    1.89287789556239   -2.28718520685078
H        -6.72204366411734    0.65428178208753   -2.20352657140790
H        -8.13068581516334    0.49802149363227   -4.26873093399477
H        -0.15141431236104    2.75279429383724   -4.57520524795533
H         2.01466738489414    3.90971499832385   -4.59833035332390
H         2.08021711266356    6.39184069720399   -4.26900921896317
Cl       -3.97817722381568    5.09742602119711   -5.50964226130162
N        -2.47490257618740    2.49446165799860   -5.95299360225988
C        -2.58476819682618    1.16309639561546   -6.08314279212611
C        -2.20993466697880    0.47186445678130   -7.21669075108387
C        -1.69482422793010    1.16907248132396   -8.30101493378357
C        -1.58176249024869    2.54737227948601   -8.17962674794520
C        -1.97366382871477    3.15832580530125   -7.00647714917088
H        -1.90466092278577    4.23260512425540   -6.90280330737993
H        -1.19191476989482    3.14691593046863   -8.98729380991051
H        -1.39431125814760    0.65967382413803   -9.20307892566797
H        -2.32174275532532   -0.60068464592012   -7.24741352815285
H        -2.97430417272445    0.63161264004929   -5.22562483692818
C        -6.72732211989560    1.66734299529774   -5.41290822095280
C        -5.52468157921545    2.34188661648559   -5.37013841346708
H        -5.15395753744632    2.84987589208288   -6.25000755718123
H        -7.28843587123450    1.63795814707660   -6.33391792348688
C        -0.06426857123062    6.50591294092904   -4.08468015609496
C        -1.23533356080848    5.77671694395192   -4.08771013443727
H        -2.18675271773096    6.27474499445561   -3.96022572761183
H        -0.10303804036890    7.57404913804728   -3.93863096859173

