36
CSD_code = TEDPEZ | q = 1 | S = 0 | Stoichiometry = C14H14ClN6Ru(1+) | MND = 9
Ru        2.22373687039727    7.86019725228905    4.59197011611802
Cl        2.14603919627984    7.60673301101684    2.26728073636940
N         0.34609792993375    8.58413834879330    4.35329086097880
N        -1.27307281037789   10.21617368220726    3.89540672970193
N        -1.92994266148655    8.08699254835301    4.68728067282131
N         0.92568796990782   10.55798060490497    3.30277077797454
H         0.60800726606838   11.38090586728724    2.81379063926427
H         1.73531806713262   10.07133067128859    2.92995363042110
N        -3.43818009189079    9.80736825922297    4.51716277999062
H        -4.15414250227247    9.16748334753320    4.81582579980565
H        -3.66919482231453   10.74681943989065    4.24161190962161
N         1.11279794742701    6.21656779558762    4.71452625894260
C        -0.02694300696557    9.78769938929372    3.84316042813918
C        -2.19355907436396    9.37576287209933    4.37636608274992
C        -0.66720151709412    7.74719412668288    4.65123875049438
C        -0.22297427547152    6.36882442355487    4.84051906636860
C        -1.08413155634976    5.29354058672584    5.01665941229667
H        -2.13958052354388    5.48995943086293    5.11031407356429
C        -0.55494816270990    4.01489206201814    5.04594598647751
H        -1.19357354929498    3.15672573461286    5.18041095109343
C         0.81500582336171    3.86039315266396    4.87232959949275
H         1.26598312475862    2.88140800612142    4.85701671311447
C         1.60982626244156    4.98192016882797    4.70947062615308
H         2.67689418796158    4.88876024165524    4.54870358953300
C         3.30487801175869    7.47327638118688    6.56119416333743
H         3.11242158264767    6.75657210343723    7.35266282212541
C         4.21674661101076    7.14516229135793    5.52439249481277
H         4.72616434246637    6.18853013980922    5.53444689864883
C         4.52101630937368    8.09458010898920    4.54219049114565
H         5.24538617727642    7.86520568327503    3.76785405591928
C         3.96785080251938    9.40174992209538    4.61733790773387
H         4.28803652731275   10.15929228212081    3.91116311475213
C         3.09193712113481    9.72948663333168    5.65806681947473
H         2.72462321064155   10.74463403570667    5.75864912989297
C         2.74551463379773    8.76012228493575    6.63382120095974
H         2.12687457852558    9.03851711025989    7.47861470971046

