48
CSD_code = TEDPID | q = 0 | S = 0 | Stoichiometry = C19H22ClN5Ru | MND = 9
Ru       -0.81144904104258    3.49831450122888    9.95700870214327
Cl       -2.11597806408562    5.17225130501967   11.00292744955397
N         0.27393807066542    5.06914761709926    9.24725280244378
N         0.65246468353493    6.86083518375756    7.77906211112569
N         2.32482353943768    6.22326281551877    9.32699629037248
N        -1.43327767946146    5.87732390531140    7.92436024449682
H        -1.75753387017394    6.66127274167680    7.38033383921823
H        -2.06453803866751    5.53161745040179    8.64754745370138
N         2.76731110684411    7.73922227789191    7.66623625588141
H         2.41989836894152    8.37925814949526    6.97497680380927
H         3.64460088260185    7.91244203033319    8.12305160266274
C        -0.14480815474628    5.95343709781160    8.32358195991613
C         1.89458822683980    6.91526056837936    8.26895088839558
C         1.48383383787634    5.32232071509968    9.80217782690702
C         1.71441811047159    4.55342698118196   11.00180637247180
C         0.62877456650287    3.72605361168243   11.35458433741412
C         0.71815090620266    3.04396024379187   12.56161400944664
H        -0.10680263350370    2.42753509834800   12.89643491142713
C         1.84577029393439    3.15200619944675   13.35809485698192
H         1.89396262180515    2.60812329807026   14.29161012576296
C         2.91774174643486    3.95135819885058   12.97582354075215
H         3.79027767327513    4.02042350068247   13.60868482088770
C         2.85299678236564    4.66576663326967   11.79953349922707
H         3.65381363867555    5.31547769049748   11.48126399026832
C        -0.14221383270111    1.87668324084678    8.54043141163604
C        -0.39221936629052    1.32034095471354    9.81515883601173
H         0.36386384538793    0.70680659948273   10.29225468329419
C        -1.65678398734488    1.45984025407097   10.44088701688010
H        -1.85610598019871    0.95065573958435   11.37793440876136
C        -2.68186913850811    2.19250777117257    9.80653426994787
C        -2.46083203898959    2.69543305902008    8.49585701570656
H        -3.27640901653632    3.16855985655992    7.96275467480015
C        -1.20959412939191    2.56507454334435    7.89476031540942
H        -1.06226068266189    2.92853605790665    6.88254673338047
C         1.13968682361913    1.59350728966400    7.79002478796406
H         1.16571993493211    2.24190328044494    6.90532202669906
C         1.13386293113677    0.13536241707724    7.31579536023463
H         1.12835032320694   -0.54227185943485    8.16678621678255
H         2.01988570303228   -0.06851264046939    6.71931886522899
H         0.25375138407799   -0.06750049930096    6.70844140480253
C         2.38582126040977    1.88678066453035    8.62580304200678
H         2.36978700325651    2.91403305241227    8.98518644166614
H         3.27944929078293    1.74439919621523    8.02227838526305
H         2.44857269558530    1.22694015215658    9.48740404770727
C        -4.02291823130685    2.36762346441751   10.45434972130011
H        -4.16355864119113    1.65724590421444   11.26625827854994
H        -4.82307686901345    2.24498054505457    9.72591183454610
H        -4.09178685601735    3.37757314146867   10.86748552615190

