83
CSD_code = TEDREB | q = 0 | S = 0 | Stoichiometry = C38H41ClHfN2 | MND = 6
Hf        9.65929237480110   11.28930223185699   10.78852461245008
Cl        9.90800046383155   14.45562507660620    8.15518605179077
N        10.94701027142093    9.98196146568976    9.57419054445606
N        10.55346855839653   12.03679361461483    8.74212642392210
C        10.09994918809962   13.26916374171839   11.70730744882677
H         9.91035838109701   14.08586152333509   11.00361337563991
H         9.56632727923290   13.46577906814984   12.64376890104725
C        11.54041163091424   13.08656275278953   11.94806721563423
C        12.01604792614052   12.58912140856303   13.17390450568859
H        11.30900415215271   12.37471465601815   13.96561826059895
C        13.36652499895322   12.41748148706097   13.40419362746916
H        13.70225326150924   12.05195147908781   14.36483069368672
C        14.29335954281357   12.73118871437811   12.42213320001482
H        15.35009323671857   12.60965988153566   12.60973577690380
C        13.84845017395042   13.22775676879496   11.20672166441914
H        14.56246226702174   13.49332651103622   10.43969395593467
C        12.49934921184957   13.40670121053083   10.97224307896343
H        12.17882575679091   13.84207006716314   10.03475596042997
C         7.66901665827310   10.97661281882141    9.84054238555322
H         7.66569821606566   10.70158016061944    8.78056773080840
H         7.09626577089099   10.24032100432960   10.41572540361527
C         7.16404709341313   12.34200774473535   10.04299559120876
C         6.85358643835996   12.79703404055564   11.33847710793764
H         6.92432547715848   12.10096204319126   12.17063255131081
C         6.41896665902551   14.08960572930367   11.55593264253095
H         6.17759640676770   14.41378187797392   12.55829032517768
C         6.28838652671948   14.97440417186912   10.49595430398484
H         5.95250355280608   15.98545347948208   10.66866233046983
C         6.58217744671123   14.54438463298307    9.21234296399225
H         6.47227432807770   15.22365439261999    8.37911049179822
C         7.00800598908677   13.24939195699592    8.98707585133215
H         7.21365162781798   12.92188863560042    7.97608146274734
C         9.59893046204956   10.15489171889308   12.70990728321365
H        10.62446160961385    9.96917909786957   13.05283249219124
H         9.06404390271838   10.72635882151162   13.47932049407679
C         8.90962484805869    8.87854568498616   12.45078039145482
C         7.51704773884503    8.76375886608937   12.57000745676768
H         6.93999471394019    9.62246204257427   12.89115154581705
C         6.87147742836412    7.56915063851658   12.31653938457086
H         5.79699039130552    7.50927167393678   12.41770238581130
C         7.59359147429024    6.44567677607222   11.94605193336964
H         7.08733702720898    5.51250054254543   11.75051610680731
C         8.97322874891393    6.53103703287851   11.84608279395810
H         9.55209469234290    5.66007525119974   11.57471661566879
C         9.62052721676123    7.72423360972423   12.09890346358604
H        10.69858152826558    7.76397851220489   12.03910468301190
C        11.17581787099229   10.83087743584069    8.58057931111300
C        11.98111293751225   10.59857103151981    7.43375949564891
H        12.46498317648494    9.64054316642096    7.32592685267997
C        12.12684424335343   11.59264775956892    6.50619440231587
H        12.73793410461574   11.43450681757067    5.63013109115836
C        11.48961543345411   12.82808434926005    6.68436676239791
H        11.59085134715232   13.62826187449503    5.97300477871548
C        10.72840960638926   12.97361441265607    7.82002661615122
C        11.42528099899772    8.65476042946232    9.50860256480396
C        12.54259102222307    8.29868781099432   10.27763026620354
C        12.97527586166234    6.98166023388026   10.26097034041663
H        13.84090936411850    6.69287696493259   10.83671647258466
C        12.30830825856035    6.02810682971038    9.51411953159551
H        12.65156501904398    5.00402333119478    9.51663762004657
C        11.20582894046164    6.38659860764131    8.76267812095698
H        10.69201367707197    5.63354090333665    8.18444087804328
C        10.75223972470907    7.69724432118877    8.73707933422335
C         9.54625951125691    8.06977131675144    7.90547018102390
H         9.40084290317394    9.15394615646140    7.96748079923851
C         8.28655367294933    7.40062517389092    8.45912902554928
H         7.41798291736736    7.69190085797177    7.87211752893156
H         8.12617154543072    7.69934948183700    9.49256501090687
H         8.37662447664340    6.31784485315713    8.42512294900270
C         9.75313963347078    7.71010917338577    6.43232927535122
H         8.90391426436597    8.05008170304846    5.84316295712218
H         9.84865588683754    6.63531494194569    6.30172398708212
H        10.65170706726779    8.18562900857864    6.04456478362576
C        13.27491090122778    9.35925919146436   11.06796338083854
H        12.59012309252396   10.21115040412182   11.21827166198329
C        13.72916708005563    8.87280549802984   12.44383877898719
H        14.08725222589722    9.71824173661330   13.02640486757385
H        14.53946286724403    8.15298530216592   12.36018681267644
H        12.90670141805190    8.40642269091073   12.98206716297441
C        14.47607694178729    9.85199865526552   10.25536869694797
H        15.02138854428044   10.60806647713813   10.81389792078642
H        14.14638859055555   10.28973554885471    9.31528673622173
H        15.14747222325897    9.02413093172427   10.03525957346877

