96
CSD_code = TEDRIF | q = 0 | S = 0 | Stoichiometry = C42H49HfN3O | MND = 5
Hf        4.66249039049942    4.31564297863136    2.67383504545125
N         2.73306341999326    5.53635772783808    1.75923786395410
N         1.45948414439484    6.95879516773827    3.07411657597815
N         4.05105694504667    4.08641548708519    0.62973948767102
C         3.50295153369962    4.22353877284942    4.59146583041854
H         3.89481663634410    4.91656208836444    5.34557788935369
H         2.45583330867767    4.47427802536542    4.37523035934177
C         3.60753927337815    2.83520568026387    5.06332141345560
C         2.72736404405276    1.84417418624594    4.60471683098238
H         1.92431064474543    2.12288347281648    3.93100678471141
C         2.85377545524392    0.53146177286216    5.01500000587694
H         2.15646670529910   -0.21397819415044    4.65788955809308
C         3.86026748888943    0.16334741782831    5.89355603792454
H         3.95856428984431   -0.86378784289506    6.21069180038387
C         4.72895160234716    1.13162051606010    6.37319580550300
H         5.50607002685807    0.85627909226306    7.07234554669901
O         1.17671496751358    8.43532199785548    5.47845841923952
C         4.60186589455931    2.44640120231102    5.97237665512697
H         5.27491939960853    3.19818369924973    6.36335706644815
C         5.77844302248938    2.35287343351711    2.62709157454549
H         5.48026564127351    1.63629606447639    3.39942221958728
H         5.59276646408335    1.91909880142552    1.63690078995233
C         7.20022978963972    2.69665468001649    2.75122136773724
C         7.90359873410722    2.54656317120450    3.95354448735311
H         7.39429382835214    2.12226046093444    4.80900065570044
C         9.23152994267493    2.91570509178176    4.05418362219159
H         9.75227195315821    2.79098180401674    4.99294621128101
C         9.90148023389828    3.43567458102216    2.95864746008914
H        10.93923998794339    3.72155835586569    3.03953003774818
C         9.23007265552246    3.57053193092943    1.75257129763838
H         9.75050669432284    3.95981657886856    0.88857481226926
C         7.90253734209016    3.20645009954413    1.64836520083364
H         7.38486620276619    3.29342716923431    0.69973043946682
C         6.10628729118611    6.03450930607843    2.55185336581399
H         7.06714859947191    5.58938591347248    2.25820344250133
H         5.85978605637969    6.84460303831258    1.85315182808451
C         6.18906496329648    6.54281691958877    3.93210902152004
C         6.62656193744699    5.69718791965856    4.96578941612979
H         6.95243717498285    4.69136333941956    4.71739358263461
C         6.68486839724779    6.13943960918060    6.27203856255235
H         7.03207358426216    5.47285024874942    7.04873266935746
C         6.30547718193395    7.43415553116244    6.59577963818255
H         6.34816288439569    7.77567879500678    7.61875542293111
C         5.89055541289904    8.28889076138520    5.58859025146425
H         5.61982216657470    9.30836630326997    5.82485488207363
C         5.84078947761871    7.85401683041748    4.27734697361479
H         5.53858388884623    8.54203295158500    3.49940630875512
C         2.93029387386273    4.82023079598245    0.61687666334061
C         2.01979793076112    4.88414029569151   -0.45934850313380
H         2.21573400891142    4.31390183382980   -1.35337728353523
C         0.91455749316224    5.68758080243181   -0.33349009517890
H         0.20747548986541    5.76980738224975   -1.14636006528719
C         0.70411418289898    6.41030061407877    0.83331656129503
H        -0.15093392696149    7.05817487021362    0.90687561716982
C         1.63727915098704    6.31297102333703    1.86669101744931
C         0.26389374156614    7.73787588486419    3.32636466424934
H        -0.60523084486418    7.22742879941235    2.91227398332203
H         0.34280611623365    8.74286714896716    2.88373217576404
C         0.06044516184719    7.86839921576043    4.84090287296861
H        -0.78423811297780    8.52662448219784    5.05111967568280
H        -0.14196506566422    6.87110909439862    5.26159510792916
C         2.31643831892650    7.63626179183288    5.25594749073501
H         2.15675907815742    6.63798842456369    5.68723292446438
H         3.14767336805025    8.12292626364152    5.76754465366656
C         2.61146730726660    7.51552749173617    3.76123674714526
H         2.82247959840230    8.52326372558237    3.36928040953209
H         3.47905447046130    6.87252230232798    3.59675232931953
C         4.29792184985459    3.18233862469750   -0.42553661850915
C         3.69084926065076    1.91624037858134   -0.41792947883294
C         3.92446005798557    1.06038766216152   -1.48445174526650
H         3.44886367270120    0.09196129857795   -1.50828787231735
C         4.75529519255702    1.43177660566638   -2.52478356947097
H         4.91649144452201    0.75792672149502   -3.35319142711082
C         5.39012874955825    2.66000256670519   -2.49957019522251
H         6.04917111032734    2.93092990675552   -3.30957611042696
C         5.18025819364339    3.54594862483251   -1.45424004898845
C         5.85681123184564    4.89765364640619   -1.41009413003692
H         5.87986742981356    5.21768436563188   -0.35776743862293
C         5.03790799498257    5.92193566302239   -2.20205113672438
H         5.53027102986688    6.89209039762518   -2.18448018724112
H         4.04395428423931    6.03125036934428   -1.77454728184542
H         4.93574921014057    5.60392130993002   -3.23796147074131
C         7.29336992145985    4.85849926796808   -1.93316396218395
H         7.84540222386346    4.03020537516087   -1.49523488755381
H         7.80303162603031    5.78500449653846   -1.67725894858852
H         7.31465071453518    4.75365178088394   -3.01526185523271
C         2.80880288749695    1.49035390429944    0.73643795879323
H         2.98309361789148    2.18544324584695    1.57929012710807
C         1.32897762360754    1.56630911135253    0.34907880928147
H         0.70648370550947    1.23507610051712    1.17796176853805
H         1.12964582490871    0.92726893074380   -0.50872005242845
H         1.04888300956252    2.58544854237724    0.09205257196315
C         3.14854992201601    0.07734492697896    1.21783142672159
H         2.64598217997785   -0.12105168725724    2.16096842983002
H         4.21867858451561   -0.03425098356312    1.37246973785309
H         2.82411842517361   -0.66974633516867    0.49789612168794

