87
CSD_code = TEDTOM | q = 0 | S = 0 | Stoichiometry = C34H42F6N2NiO2 | MND = 4
Ni        8.66719586171863    0.00331800715158   -0.00053044781683
F        10.24254759220133    3.58842450788706   -2.35782420310411
F        12.00586111005281    2.41795540327695   -1.95905625185838
F        11.63964595266052    4.22602736609011   -0.85858911242765
N         9.07490742266147    0.79708648164214    1.74505987450963
O         9.48800715791867    1.45819189469032   -0.84172596512633
C        11.03518915359350    3.14425637825399   -1.37719916592445
C        10.27414695366308    2.31267520512904   -0.33732716744108
C        10.50993291893851    2.55352752158725    0.99047555068233
H        11.18992841082211    3.33372245875206    1.28373010751038
C         9.83423196054366    1.82366127727112    2.00052313384535
C        10.04846689848421    2.28842879540731    3.41404368698554
H         9.16479596234445    2.11375013390814    4.02315963902549
H        10.30561329890499    3.34350832991585    3.43532892664045
H        10.87367279744228    1.72621212630234    3.85006887222703
C         8.37556071411542    0.16983660054049    2.80946295065323
C         8.97311625691089   -0.87950843291966    3.51705600646027
C         8.22665367145994   -1.52769401974738    4.49070428451932
H         8.66028946396639   -2.35246719957028    5.03389340267736
C         6.92750140834195   -1.14615799531049    4.75902111290949
H         6.35289915905266   -1.67390177014047    5.50520774066730
C         6.35564070578745   -0.09117688397592    4.07071065360249
H         5.34006558999744    0.19123146138371    4.29412218660180
C         7.06611241190143    0.59108829921697    3.09626477887942
C         6.46119089490493    1.75177466966439    2.33236997720924
H         7.25761168195178    2.47661566287221    2.12393387174450
C         5.37038569824624    2.48210226610886    3.11581606002449
H         4.46755070755035    1.88087821845905    3.18387862669951
H         5.11624435747004    3.41016659956593    2.60796422884632
H         5.70936827459354    2.72334611519389    4.12097944694784
C         5.90413456441906    1.26654640509656    0.98859033715773
H         6.71960719030233    0.90134259439235    0.33646639774027
H         5.40275652920160    2.08244529965987    0.47235064693459
H         5.19559109464926    0.45604713289091    1.14649060106708
C        10.38616080650491   -1.32531839303753    3.21765722118581
H        10.83534570915640   -0.62427434000656    2.50587115892674
C        11.24573563776752   -1.33925589971772    4.48425729152476
H        11.18154494191882   -0.38842685239004    5.00983244869708
H        12.28670601540233   -1.52147704342949    4.22566717586970
H        10.92450654704658   -2.12390162501557    5.16386389580940
C        10.37647976688658   -2.70800528104217    2.56224252560357
H         9.90221014911779   -3.44016672090128    3.21023599110546
H        11.39372490612717   -3.03175565411913    2.35120552032466
H         9.81975072552464   -2.66851844013817    1.62994428050598
F         7.08091669993200   -3.59137222953886    2.34750471789723
F         5.33194668663974   -2.39509570669582    1.96261432688385
F         5.66821430196340   -4.20258578558701    0.85185572209267
N         8.27224144204254   -0.79774299206319   -1.74531554167550
O         7.83640413809596   -1.44535301109411    0.84059402699001
C         6.28955455722033   -3.13156639750457    1.37262035427824
C         7.05772933681545   -2.30534514899838    0.33378746261542
C         6.83728051877722   -2.55611078573306   -0.99472633172892
H         6.16331178937463   -3.34064207044700   -1.29026767717014
C         7.51949492822666   -1.82879579012366   -2.00226971024400
C         7.31982270923724   -2.30196460317798   -3.41513940145519
H         8.20707359501812   -2.12418765213335   -4.01812158831859
H         7.07025695067261   -3.35894641841676   -3.43297640848265
H         6.49412637528205   -1.74790671891353   -3.86052914222592
C         8.97449455347660   -0.17027486587741   -2.80778214073029
C         8.37383255603146    0.87160938248436   -3.52380801775188
C         9.12151956332474    1.52055459713583   -4.49599155745958
H         8.68528010577231    2.33962289353241   -5.04566775733279
C        10.42495339252214    1.14706807659563   -4.75472908113500
H        11.00035314837545    1.67547925620768   -5.49982465719640
C        11.00002485824141    0.09922023611388   -4.05826178990232
H        12.01890034809044   -0.17702163381482   -4.27425826484286
C        10.28844491937753   -0.58379496772789   -3.08512564986901
C        10.89687581876325   -1.73736575666458   -2.31325427252850
H        10.10408119778286   -2.46650714754060   -2.10600816956382
C        11.99669621160156   -2.46371633465256   -3.08772393107190
H        12.89596697516528   -1.85688262374609   -3.15315929335980
H        12.25402242217697   -3.38802944817071   -2.57465954658410
H        11.66496540279132   -2.71122012177615   -4.09377432341223
C        11.44343696900573   -1.24294382651138   -0.96856226515618
H        10.62155764149215   -0.88157336435498   -0.32243485234940
H        11.94818391369402   -2.05305572430593   -0.44656602624758
H        12.14675406753009   -0.42775418616563   -1.12580981687225
C         6.95594277415191    1.30878774964413   -3.23487555923372
H         6.50757633585483    0.60824448423223   -2.52208147225339
C         6.10379141509045    1.31026577367467   -4.50657082862486
H         6.17830153923690    0.35754515018448   -5.02735023722258
H         5.05995462434869    1.48578129874323   -4.25502108395448
H         6.42313316690669    2.09415690589221   -5.18795333715670
C         6.95205161201096    2.69466446635862   -2.58623537293625
H         7.42272400045368    3.42748898570725   -3.23609997853440
H         5.93143319535614    3.01104364488928   -2.38040508136897
H         7.50578420983938    2.66406174951033   -1.65183474341946

