61
CSD_code = TEDXOQ | q = 0 | S = 0 | Stoichiometry = C30H27ClP2Ru | MND = 8
Ru        2.04343735021872    0.56112014443356   12.58003329566206
Cl       -0.01427600338362   -0.19346547240307   11.58272828697259
P         2.19757271350031    1.37679639592499   10.44868612912951
P         2.89555821657021   -1.10209483867255   11.27763048972761
C         2.88906429289783    2.12430902258604   13.92021452951394
H         3.43484075140780    3.01648764045119   13.63902459326347
C         1.48727962553500    2.05377132634691   14.16373175717255
H         0.79830949941424    2.88747720398553   14.14232475283619
C         1.20823157568509    0.76546403750291   14.69185556529985
H         0.24369974695680    0.42862431270219   15.05039770156875
C         2.41022714391750    0.02991356699913   14.74043112793774
H         2.54533001893513   -0.93754494780594   15.20562310611138
C         3.46117180034087    0.87397949648276   14.26134345240184
H         4.51939591961911    0.64946590448104   14.31669724590377
C         2.51032986182876   -0.28479328166218    9.64467276753599
H         1.55909446552234   -0.69233048812922    9.28116203288754
H         3.27477762493019   -0.31946728960753    8.86569337232749
C         0.84839100445749    2.13335487597003    9.49863792007763
C         0.61059979479071    1.85028634064358    8.15835716813979
H         1.24326154110162    1.14883355178354    7.63123768067159
C        -0.44293271285746    2.46539961328857    7.50614375860145
H        -0.63351770490347    2.24380403059938    6.46576502866438
C        -1.25757425292543    3.35788037654157    8.18404425440130
H        -2.08269717164853    3.82919740098079    7.67039182550710
C        -1.02332900002963    3.63875336246302    9.52058348575542
H        -1.66600441633272    4.32746932641087   10.04914309411821
C         0.02750881382100    3.02674138922138   10.17679028368823
H         0.21780187736349    3.21363305137781   11.22642886238656
C         3.66845363671930    2.31948672005925    9.92025486862550
C         3.71543626086291    3.10712446164609    8.77635640395126
H         2.83621544807080    3.21524870371570    8.15723183817443
C         4.88978353017162    3.75686246254911    8.43767376165630
H         4.92538442932329    4.36884928058912    7.54793357695126
C         6.01655207796882    3.62737158570817    9.23336957280410
H         6.92935152461611    4.13728324896510    8.96233839428978
C         5.97004654004612    2.85121640734507   10.38074894152675
H         6.84550596118502    2.75282686079122   11.00612225792486
C         4.79757770451215    2.20626123258750   10.72520161740550
H         4.73663057314315    1.59954749047703   11.62312511372563
C         4.67688212609676   -1.47718051636215   11.26310460274544
C         5.61183243429869   -0.91427960836640   10.40395493313866
H         5.30302436017264   -0.23257131727052    9.62500615621893
C         6.95461145419450   -1.21784156608669   10.54926363424545
H         7.67619040829220   -0.77916163289076    9.87508559598291
C         7.37486507965930   -2.07437703333703   11.55239435609153
H         8.42405556908102   -2.30625777008815   11.66122240627520
C         6.44761608267688   -2.62991267246506   12.42104740977527
H         6.77357942158426   -3.29418007780041   13.20818264758547
C         5.10784703148972   -2.32864378359961   12.27926088165159
H         4.37143451431321   -2.75048898067414   12.95252842536459
C         2.21837000339341   -2.78219266042864   11.11351330280471
C         2.63380031334559   -3.60538492202043   10.07156760037574
H         3.36201059810521   -3.23924408603077    9.35916731839502
C         2.11455607460564   -4.88072707817591    9.95997691092530
H         2.42993958829740   -5.52310560597018    9.15036350181756
C         1.18852459208491   -5.33676578216471   10.88645338758100
H         0.78440537839562   -6.33433725453090   10.79391772025984
C         0.77880671676682   -4.51866412941470   11.92600829919329
H         0.05470255963670   -4.87678885193090   12.64291125465704
C         1.29391546029718   -3.23973284004589   12.04195405024787
H         0.97324016986892   -2.57600633768897   12.83448568934454

