53
CSD_code = TEDYUX | q = 0 | S = 0 | Stoichiometry = C20H30HfSi2 | MND = 14
Hf        2.53159611551225    2.66544907642735    2.58600678136483
Si        4.99593572399189    2.61995070199569    5.69258194776418
Si       -1.30340106104616    1.79937283116948    3.13481376831066
C         3.74865394888865    1.87282427986282    4.48023359790038
H         4.00352204471509    0.81705514012077    4.32627566244433
C         2.37490658869464    2.03912198247254    4.74780355932812
C         1.21130079853238    2.29097121982184    4.37646515052482
C         0.29511087287097    2.77254309595753    3.42030312228157
H         0.03433068242233    3.82142694660791    3.60836802933121
C         4.30699303251620    4.19223520343107    6.54240988022969
H         3.28938384013404    4.39671455854573    6.22314274214260
H         4.90464013045833    5.07238590079600    6.32704769785875
H         4.29076073978496    4.07090916139359    7.62097425168729
C         6.63282569497362    2.96084969913369    4.75845470459898
H         7.16024027565746    2.03297222130069    4.55997107530011
H         7.29302926696890    3.58469706441681    5.35294034508509
H         6.47832435905914    3.45693914453822    3.80551296088655
C         5.40442063735952    1.36512632464752    7.08268624856851
H         4.52038944086542    1.11079444431456    7.66002846903824
H         6.14233666714996    1.76648206245642    7.77071961299277
H         5.80635490101229    0.44171331730516    6.67655247259410
C        -1.07157061520907   -0.06786590754629    3.49343002065210
H        -0.05915140511204   -0.28143138735082    3.82350040925884
H        -1.27228746093024   -0.68207872486305    2.62113619033682
H        -1.74517057778869   -0.39562373584540    4.27912870463054
C        -2.68040530488740    2.43104032480323    4.30909706293455
H        -2.40828686087555    2.29181235589430    5.35123236530636
H        -3.61436548657209    1.90374626052645    4.13990802114211
H        -2.87267262205860    3.48933240574018    4.16011305200009
C        -1.91650247066675    2.11982409104811    1.34926837925699
H        -2.26073905329892    3.14365576220181    1.23990469280442
H        -2.75376344693084    1.47167329108814    1.10953935275102
H        -1.14671897019593    1.95421837069404    0.60254746243330
C         1.87266563690201    4.93144215338094    1.92203093646366
H         0.88344707477798    5.24623968970904    1.62043290992528
C         2.91299237005526    4.56151035776343    1.04561914059596
H         2.84372174721685    4.53526528317153   -0.03194497800037
C         4.09165720064713    4.40300516418434    1.80235201253968
H         5.08401437802229    4.24544615886739    1.40359555964029
C         3.78799490424802    4.71619489463596    3.14646062901742
H         4.50793444152745    4.85675263409002    3.93344995994378
C         2.42355600571884    5.04611981795361    3.22025699678699
H         1.91976320798995    5.43875299086244    4.09137282509775
C         2.05759231234611    1.66906092783916    0.39392498193055
H         1.49504980309063    2.12455888005161   -0.40908988664685
C         3.46131081480750    1.68178067772924    0.52968580628795
H         4.15825106834470    2.15632866016048   -0.14536507914417
C         3.80921647008928    0.82391924490690    1.59328190254062
H         4.81578601882166    0.53048721418292    1.85690561963139
C         2.61677899386171    0.24115165139727    2.08347103718829
H         2.55130936648800   -0.55629757759137    2.80904348577734
C         1.54014089536943    0.76417624208237    1.34862895851619
H         0.52669686367564    0.40526745151171    1.38498938816564

