74
CSD_code = TEFCOZ | q = 1 | S = 0 | Stoichiometry = C28H41CuN3O(1+) | MND = 3
Cu        1.09783372656465    8.05192057800838   41.27749661623931
C         0.88818993050080    8.55855583215831   44.23469835614154
H         0.81332385265499    7.48261345049235   44.30355918865127
C         0.81474916506606    9.35230877575345   45.35824124637222
H         0.67999206080231    8.90491512430410   46.32985945673729
C         0.91523424776921   10.73885297303180   45.22654484081220
C         0.84840315031033   11.62763457779999   46.41849071570233
H         1.72924505375615   11.47498379831575   47.04211614980746
H        -0.02379146418850   11.38615419016723   47.02352665521061
H         0.80429070983472   12.67420163682478   46.13053454532055
C         1.08628336317370   11.24392499596453   43.94308134853627
H         1.16802258760259   12.30824033494396   43.78308961479277
C         1.15264924197325   10.37865293544773   42.86130750490175
C         1.36017258822689   10.90267042445049   41.46452350726489
H         0.73832347106609   11.79356742923554   41.31429901150633
H         2.40859198013188   11.22039817002769   41.36900958124720
C         1.03992341583102   10.21628884791749   39.23546535423300
C         1.32820533144683   11.57307747266646   38.65996825700164
H         2.29206632937397   11.95303189252983   39.00518161846340
H         0.56385816235366   12.27491255755295   39.00646407983783
C         1.25336742141099   11.40473136122517   37.13529034693875
H         0.86599375704295   12.29735159061910   36.64971189138283
H         2.23511573863654   11.18852211765808   36.71531601002322
C         0.31592035652153   10.20704422327329   36.99094552649004
H        -0.68689430423593   10.55955985145333   37.26652666422630
C         0.18134995623451    9.49212741015211   35.65105430093119
H         1.13588327924982    9.03212738626389   35.38987953233176
C        -0.19263867638537   10.47274042636148   34.54017524850410
H        -1.08932610027352   11.02512511183937   34.83228165960041
H         0.61452982056896   11.19382463877457   34.40040353881459
C        -0.46107926301880    9.73901996142135   33.23228084713862
H        -0.77176493267887   10.45790886943017   32.47177207363695
H         0.45020183576068    9.25845632529303   32.87553536752116
C        -1.56320659924168    8.70130284199707   33.43053613366984
H        -2.44067061136004    9.22919923081392   33.82678756272740
C        -1.98893405291085    8.07870004482682   32.10169528639609
H        -2.26796671645078    8.87760419131307   31.40842208100661
H        -1.16893912641652    7.52359037386788   31.64472526060299
C        -3.18025115427996    7.13823767876267   32.30035752197539
H        -4.04369176553941    7.72927902797553   32.65354820965882
C        -2.84215595017898    6.07931662557793   33.34508542339363
H        -2.07207500499735    5.42801815427733   32.93294988828134
H        -3.72652253347445    5.46516870936992   33.51984726481525
C        -2.38236504147125    6.70608072443728   34.65769021469207
H        -3.21273926823552    7.27411726989079   35.08532053542374
H        -2.13838240112222    5.89832647938050   35.34867197054651
C        -1.17095258776967    7.64361712457054   34.48799978843964
C         0.04822701558641    6.81548216876976   34.07029009463855
H         0.16660034890581    5.95998340885867   34.73121669228288
H         0.96400323329932    7.39767733513002   34.09475859238118
H        -0.07231816866472    6.43303319707643   33.06286267249750
C        -0.90628845100347    8.40855480899171   35.81506986567609
H        -1.83740377566987    8.93473325006223   36.06204863797637
C        -0.59072564451700    7.47509470263357   36.99563509819011
H         0.27637153169467    6.86064854132465   36.75932502681300
H        -1.43534240171991    6.80469985667767   37.15323488099664
C        -0.33642297281044    8.22213720992176   38.30923407598457
H        -1.25022010200348    8.73206699304495   38.62175977725337
H        -0.06859661696721    7.50882820190614   39.09350638201455
C         0.76888576070267    9.25475736806117   38.11193123728014
C         2.12454368707680    8.56943966071527   37.86606010579743
H         2.91751549993400    9.29899926015514   37.72747607366340
H         2.09258582475685    7.93016343718982   36.99170246496382
H         2.36804402565983    7.95912905488797   38.73564442682771
C         1.32543025706573    5.14536292738731   40.78015703360842
C         1.39826320547124    3.73681307338956   40.61543497188812
H         1.28378697312046    3.47893092569463   39.56213691384208
H         0.60506778441709    3.25795344801523   41.19022735278784
H         2.36412159923365    3.37609663592773   40.97035765321742
N         1.05579774381986    9.05842486802395   43.01172528463758
N         1.06376841500607    9.89643776531968   40.46581978434376
N         1.27265497140072    6.28951552279832   40.89372046071421
O        -3.52138319414984    6.46018007551064   31.11088017933121
H        -3.71323952928868    7.10525255410107   30.42191646243836

