40
CSD_code = TEFFIU | q = 1 | S = 0 | Stoichiometry = C15H17N2NiO5(1+) | MND = 6
Ni        2.30549319197916    1.01839874359736    4.02958904007103
O         4.58071132471577    1.51521610408801    3.75555929836384
H         4.61598378383834    2.43648216590667    4.04011141698444
H         1.91621804156800   -0.31266800645067    6.18943208105016
H         5.15001748941281    1.01784548170409    4.35080936433108
O         2.78478141569472   -0.08127900836407    5.83284789233114
H         3.15753006388840    0.57439619473290    6.43773069984121
O         2.22624896946530    2.49607978469090    5.07326714165164
O         0.18927919766276    0.83513274713178    4.97058626654513
O         1.21533192564267    3.89558777049462    6.42806177384558
C         1.19822221351229    2.91708822806299    5.71977978064197
C        -0.12582767563614    2.11433150183988    5.54037087259403
H        -0.73934626028686    2.68982565747582    4.83178255552294
C        -0.85492666794450    1.97847465944946    6.86896044966841
H        -1.85981271743846    1.58646340462086    6.72775563243701
H        -0.91779061336429    2.95913470672922    7.33171665151268
H        -0.30715547523918    1.31819601497182    7.53823894528548
N         2.46121002165172   -0.43156151212030    2.88171881091918
N         1.78172321254846    2.06517588254610    2.38238161780337
C         2.82090125577132   -1.66740264506241    3.16609102029798
H         3.02641261491154   -1.89418577056191    4.20380234237827
C         2.94572084292855   -2.65890475391589    2.18718709949463
H         3.24164006747655   -3.65315350137597    2.48047699775269
C         2.69581226151971   -2.35449556103417    0.86978325652147
H         2.78922724486971   -3.10160066134025    0.09649674446842
C         2.31969689529045   -1.04215388515056    0.53545200911111
C         2.21579244714515   -0.11486155304825    1.59128443616237
C         1.85308887777900    1.23645914430804    1.31950695238893
C         1.60457008188325    1.65404058474181   -0.00270387947862
C         1.27451247957395    3.00749737174584   -0.19306575060741
H         1.07525082670588    3.37770598713405   -1.18739796261512
C         1.21844545359422    3.83971776489134    0.90014575779815
H         0.97556389295073    4.88435187456079    0.79029757895849
C         1.48090825624855    3.33124774882010    2.17826087895453
H         1.44609676856954    3.97836376320350    3.04440495072985
C         2.04958415627168   -0.59607896677661   -0.79223688177558
H         2.12906631252461   -1.31436504563049   -1.59364305843302
C         1.70960181997783    0.69197972036155   -1.05027378654070
H         1.51463286957381    1.01712057666116   -2.06063138246134
H        -0.63681686723619    0.39059728635962    4.75196238549498

