72
CSD_code = TEFJIY | q = 0 | S = 0 | Stoichiometry = C32H31BCuN4PS2 | MND = 4
S        -2.15375253697950    9.26879987207752   12.75639140657970
H        -0.00331437997926    7.16302003293965   12.56576251951578
Cu       -1.94656119863025    6.96133694648106   12.62690839031139
P        -1.99440254498418    5.70350166382960   14.48471374648515
S        -1.84174012984789    5.99618792571710   10.53843348387787
N        -0.43354034992409   11.25231721526314   12.32317342564804
N         0.50181875089486    9.28997746532593   12.02082652573629
C         0.87094230138897   11.47187737530347   11.95896566875992
H         1.27267386809324   12.45932398936409   11.86484883636089
C         0.69813699513089    5.18985071906724   14.64491885426194
H         0.51129635768782    4.61136695936223   13.74943956719628
C        -3.69688632282703    5.24536640245355   16.72049243616163
H        -3.44968775457843    4.19582757912984   16.65064984079271
C         4.13231806042807    7.68178532668742   13.83972573166790
H         4.56001958475756    8.17942015657842   14.69951958794915
C        -0.36941459017352    5.81248169526469   15.29111583085453
C         2.27291270907912    7.40491737974515   12.30481251189497
C        -4.35961596671799    7.93892380163663   16.88757728197983
H        -4.62316110743148    8.98464685824609   16.94729240440700
C        -3.49603055315094    7.50066231482273   15.90129668065623
H        -3.08828895447276    8.19478335996700   15.17666408051141
C         1.43677783312765   10.25910949749598   11.77161329385844
H         2.43910969987861   10.00329740977032   11.49854239299619
C        -3.14977358327632    6.15323889330750   15.82162072153150
C        -2.21649845380234    3.90319941589487   14.32113389462835
C        -0.13385052656874    6.58884816322788   16.41921359250534
H        -0.95583021179425    7.09184654035171   16.91000765009133
C         0.82392257462898    7.41841718338912    8.18986650403657
H         1.17749697679085    7.53729479062473    7.18680764187690
N         0.50180514562491    7.43647596051110   10.38033851104712
N        -0.32936738754351    6.73259700766009    8.47535532270435
C        -0.51580194263748    6.75596336433695    9.82123264391318
C         2.20822104878669    6.07621274918039   16.27826163909021
H         3.21180653538702    6.17889298235874   16.66338176607348
C         3.01690939807576    6.41978697109567   11.65975944203200
H         2.58962914116995    5.90394824819769   10.80957603924508
C        -0.64505061077759    9.91008177046719   12.35377694906797
C         4.85887376857398    6.71412267544609   13.16746226365113
H         5.85586146315171    6.45313381237620   13.49413259894376
C        -1.89457519871799    1.63266645004981   15.02885942148882
H        -1.47199594287053    0.91928887159936   15.72196321581579
C         2.85831755819009    8.01164409153568   13.41531951613775
H         2.29896240843232    8.75910038343795   13.96304691919741
C         4.29091189070975    6.07730245042373   12.07799475266174
H         4.84289055175724    5.30966601513751   11.55226716395597
B         0.77059894402754    7.76795260276362   11.87218787907634
C        -4.56539560756365    5.68996932620912   17.70150750496110
H        -4.99030191987523    4.98347702349858   18.40001017687004
C        -1.67076831061546    2.98452183187187   15.21345343127100
H        -1.06625827768135    3.33010426739611   16.04137919775492
C        -3.19136164092206    2.10196866599693   13.06237463251005
H        -3.77471344816337    1.75727161513155   12.22149066362644
C        -2.65631277332678    1.19088115529966   13.95808835863876
H        -2.82555220309732    0.13303571762861   13.81921034925611
C        -4.89349656104804    7.03308753544962   17.79024978698153
H        -5.57255488550529    7.37223315266935   18.55882549694300
C        -2.97070431248862    3.45570039242300   13.24125041496919
H        -3.36516481562094    4.17885472497004   12.53862013865455
C         1.32617528802989    7.85034783498663    9.36769165105162
H         2.21277868620390    8.41292738186479    9.57180954147023
C        -1.39936861413693   12.26778465353569   12.62521151729667
H        -2.36778046135861   11.78577672331827   12.75105752351061
H        -1.45058011921384   12.99086277599529   11.81012363315919
H        -1.13269641151115   12.78647570103222   13.54839115544941
C         1.15414525380677    6.71290561833029   16.91081902112084
H         1.33427022578779    7.31264624055996   17.79173969934479
C         1.97924078315836    5.31558850099419   15.14201028534798
H         2.80311356497476    4.83349038914110   14.63775439235863
C        -1.18388658644527    6.09383740540815    7.51800131973841
H        -0.70224877067420    5.20375394963494    7.10747973121793
H        -1.41616563360252    6.78351372655536    6.70573603071598
H        -2.10038576674429    5.79912034985725    8.02776379832619

