109
CSD_code = TEFQUT | q = 0 | S = 0 | Stoichiometry = C40H60N4O4Zr | MND = 6
Zr       10.57161264721552    5.11032816903881    3.46368328567655
O        10.57078812303337    6.73303126295567    2.21072345666441
O        10.95804778409757    3.66293836131043    4.72096138724597
O        10.15267213923099    4.07847150045179    1.89435760743810
O         9.00617174064066    5.69427841311872    4.41419563390000
N         8.74789019035582    8.19454250081578    2.29899243637735
N         8.28382904911751    9.17490304110055    3.12265653476107
N        11.77144701805303    6.73844386823971    4.57648371129677
N        12.91619219285326    4.78012959486302    2.96894225327965
C         8.16306909101225    6.55084382554345    0.60739102819945
H         8.87680058996339    5.84781031964283    1.02413518259778
C         7.38866772183459    6.20647795911159   -0.48657453620232
H         7.50438139762286    5.22814562297747   -0.92975819478751
C         6.46330966768080    7.09466305756813   -1.01072182455443
H         5.86453413008591    6.81320761476147   -1.86434865891748
C         6.30406061530116    8.34218724269346   -0.42963768407722
H         5.57856973433198    9.03616133020329   -0.82815890980710
C         7.07039614384695    8.70458028924676    0.66108541350155
H         6.95366933786674    9.66460206984350    1.13742222763239
C         8.00719496122720    7.81311492262964    1.17841698228277
C         9.86649556981507    7.60916930370260    2.81618105694407
C        10.14242534257043    8.28668844490231    4.04035854883091
C         9.09042962296152    9.24514581482451    4.15113048505913
C         8.76604096145832   10.21461172695972    5.23677347417429
H         7.77078542219624   10.60945115652702    5.04875589658531
H         9.46762488682459   11.04894289074102    5.24738777645391
H         8.77780305354398    9.72505123711025    6.20883485514170
C        11.27965440401508    7.91311415538576    4.82162901444014
C        13.08984359922350    6.30202931216139    4.95382984109193
H        13.02170611537444    5.50839968659814    5.70951726812515
H        13.73114675761451    7.10046022416598    5.34581596887739
C        13.76760987680152    5.75581575022932    3.67858789384379
H        14.72296192414451    5.28569091470047    3.96644215218463
C        14.02632694192196    6.86299746477711    2.65448463041146
H        13.14655055858268    7.50923102177645    2.59144407651633
H        14.90356466514164    7.46040486485425    2.90089565746616
C        14.17205305698806    6.07454000862094    1.36201570896239
H        14.05138869938622    6.68795932254167    0.47178665453611
H        15.15129999010307    5.59087770156491    1.32176595691862
C        13.05441428463702    5.04129924450660    1.51199761072971
H        13.28513520091203    4.11632887879891    0.97560080211426
H        12.11004566510455    5.44540531452904    1.12972031928375
C        13.31143492663776    3.40027259834465    3.29758303514984
H        14.33597868183758    3.20157667716029    2.93557206794469
H        12.62002424254338    2.72263388381879    2.78300237487591
C        13.25358822133737    3.14036347285434    4.77863687085242
C        14.38103896443929    2.74959738337616    5.47489853048699
H        15.30295229778019    2.61669806751646    4.92516606161546
C        14.34318418484511    2.51796449864784    6.84335390639447
C        13.12852078895551    2.72129145444609    7.48757743276646
H        13.08212394899943    2.56289554546932    8.54915526038782
C        11.97130306155176    3.11809043367152    6.83496914954726
C        12.01458272106543    3.32520584703461    5.43293308099641
C        11.83106686166704    8.95682788100479    5.78792871776712
H        11.03167952240586    9.68578725545237    5.92179479187263
C        13.00825661874342    9.72554384739239    5.17325465976578
H        12.73859121202496   10.08721519193508    4.18324067592402
H        13.90240287670327    9.11477248082714    5.08152919323243
H        13.24970524025029   10.58312957833107    5.79887518860590
C        12.15057762301115    8.40847083778748    7.18046177938711
H        11.30865882432204    7.82444114106746    7.54464746257004
H        12.31416933211215    9.23928744680594    7.86535811436282
H        13.03664879625798    7.78131541458744    7.19858655174972
C        15.60511969783426    2.07141918863563    7.56714285239478
C        16.68877601852196    3.14661845421549    7.40031408762708
H        17.59636910630754    2.85207011412083    7.92345519412862
H        16.34425881488998    4.09312323230313    7.81199545694330
H        16.93474499528196    3.29944058106587    6.35307791643281
C        16.09145937238425    0.74837024542263    6.95886883383627
H        16.98417436663946    0.40074271498302    7.47518820908930
H        16.32984147391817    0.86135246630721    5.90507051933561
H        15.31894920945759   -0.01160760439231    7.05255023826878
C        15.38361137525322    1.84919864318687    9.06564493996907
H        16.31429887537062    1.52183405178526    9.52539909138891
H        14.63473334573328    1.08026195662286    9.23868991458337
H        15.07206356278365    2.76804874586676    9.55666928452133
C        10.67145242663304    3.36546318267148    7.59274710294397
C        10.26399165949787    4.83526818093802    7.40119540827041
H         9.34758720242215    5.04147003742356    7.95243965775276
H        10.09469492258588    5.06938387370200    6.34556116493072
H        11.04925817644724    5.48488273337492    7.78726736951757
C         9.57947245777702    2.44066911271002    7.04095583665545
H         9.85827848643651    1.39882933984379    7.18960706565250
H         9.44674950861256    2.62132295038580    5.97815844265507
H         8.63488470492767    2.62547659525741    7.54884119623909
C        10.79197663529671    3.10471868571476    9.09907066238505
H        11.06233342128765    2.07072363052196    9.30061484768989
H         9.82993248588667    3.29605691421514    9.57067508224486
H        11.52574723853871    3.76313925481801    9.55890412711019
C        10.26106914366272    2.82794472965365    1.31235097134231
H        11.29687188220892    2.69276978132290    0.91875905169281
C         9.31020736107433    2.71555092812966    0.10591621182794
H         9.41541174211279    1.74522949335603   -0.37381446782354
H         9.54193521970160    3.49758227326049   -0.61399255360064
H         8.28153207931325    2.84103698483301    0.43830366979205
C         9.98431725127145    1.68004939168258    2.30563724410826
H        10.41550118919024    0.74875371842526    1.94229224400654
H         8.91268051479576    1.54031973277502    2.43051010247356
H        10.42261876311052    1.92985787606944    3.27367786243461
C         7.73042317784582    5.16145458757450    4.52841904635657
H         7.52947272402188    4.94688638601120    5.60123334554235
C         6.66526009219720    6.16094404616286    4.04124735345115
H         5.66850835313100    5.81215933230973    4.30271873045994
H         6.72919629006011    6.27581688531882    2.96064895821529
H         6.83360300224250    7.13173442884548    4.50232566906274
C         7.61668756138856    3.85147451951457    3.73417738789078
H         6.60828638325419    3.44290322986329    3.79287636884761
H         8.32894019087309    3.13055936542419    4.13944954593064
H         7.87501771571956    4.06153868408887    2.69153086795645

