46
CSD_code = TEFXIL | q = 0 | S = 0 | Stoichiometry = C23H16CrO5S | MND = 6
Cr        8.29185396546976    1.09645833870176    8.73582352591943
C         9.32626752846266    2.27771030544188    9.74187167374702
O         9.83901082462522    3.11176182596534   10.34288184204502
C         9.51206864390316    1.36748827568726    7.33503230282547
O        10.38644013202965    1.55151458856577    6.61527770551190
C         7.06024624791349    0.08192900851997    7.74294512741197
O         6.19694758637926   -0.40057961688825    7.16054916175959
C         7.34980501967883    0.79688126317156   10.32332191464802
O         6.87514924488704    0.62720908842086   11.35547329296262
C         7.23480987687940    2.58363380168443    8.30512820310823
O         6.59470162885293    3.50612328827792    8.06033399800537
C         9.46319426824305   -0.46066995085711    9.11578617526789
C         9.64090739874303   -1.85874513877717    8.43492173784323
C        10.57376967587625   -2.10415859060660    9.62099317044052
C        10.42794495261791   -0.81870574477681   10.09284330889899
C        11.00820206750552   -0.10114960818768   11.25475150650350
S        11.35368778638691   -3.50115270635991   10.23255495744757
C        11.00051867061851   -4.71757128274249    8.93002377296060
C         8.41003986514766   -2.72304995861681    8.45232880838674
C         8.14139581185530   -3.66318147019417    7.46227584304044
C         7.00557281489102   -4.45027417534874    7.53025512292876
C         6.12512826678150   -4.31759821205462    8.59016360142878
C         6.39576124183445   -3.40181320001220    9.59255069207913
C         7.53141510875224   -2.61574722943880    9.52732135638999
C        10.31740023827422   -1.69688251964664    7.10559456928767
C         9.56371118329374   -1.41249953613634    5.96929122646312
C        10.18349764276870   -1.20044700254865    4.75189070592965
C        11.56322747088607   -1.26055216123211    4.64989786844556
C        12.32085686685178   -1.52607120571960    5.77665960414663
C        11.70270766170955   -1.73744489836675    6.99627370875527
H        11.59650393051570   -0.78405113421020   11.86417356335078
H        11.64927139500381    0.71201018205229   10.91447054306458
H        10.21466377013681    0.33168190652986   11.86375908423190
H        11.60815945094129   -5.58882181414449    9.15253082656826
H         9.94645555387193   -4.97673788388049    8.95289675965087
H        11.27382535408672   -4.30171232860107    7.96533840342224
H         8.82274950414127   -3.78371069912725    6.63242309529707
H         6.80918532600050   -5.17102741979207    6.75007722657485
H         5.23654538588657   -4.92891897352482    8.63744862040492
H         5.72161644567353   -3.29848886889630   10.42964515601015
H         7.74547069109170   -1.91401224994504   10.32159438701349
H         8.48789424382318   -1.35869694803480    6.04090975383994
H         9.58546501815790   -0.98089728737369    3.87988695619611
H        12.04565794411579   -1.09184493770390    3.69896439612722
H        13.39825701988567   -1.56271702155681    5.71017614010956
H        12.30713927454507   -1.92157009771286    7.87418860355330

