38
CSD_code = TEFYEI | q = 0 | S = 0 | Stoichiometry = C12H17As4CoOS3 | MND = 8
As        5.30365572918147    2.72639838077481    0.34488134500552
As        4.64562355658712    2.72585530078384   -3.11151625719030
As        3.50281836382829    1.05180270589138   -0.04756217716063
Co        1.92464767361541    2.72600997936011    0.81328720963643
S         6.33428588311650    2.72622463167189   -1.64100738494599
S         3.48339808702842    0.98715586811194   -2.27316740826990
C         1.06570870131143    2.72568498614018   -0.68793032280691
O         0.55181348234293    2.72554087723679   -1.71565492256814
C         0.30794585989896    2.72603164432971    2.20051691084556
C         1.11632557652348    3.88072620613464    2.42910680721033
C         2.42804978648887    3.43988379088744    2.75946975751110
C        -1.18098425725501    2.72604449538187    2.02146349808069
H        -1.49385601009682    3.60663343752241    1.45707603016070
H        -1.49386727562459    1.84545189614197    1.45708715872266
C         0.67410781842681    5.30775044482473    2.46210067811002
H        -0.32659303429581    5.41866864519948    2.05397657452435
H         1.35723507023067    5.93514235836762    1.88044309338067
H         0.67307228536553    5.67483661227277    3.48946066249741
C         3.51695222905218    4.32057592509687    3.28677701453665
H         4.49878454731804    3.85344229541527    3.17288412980282
H         3.34977798851706    4.51395148010767    4.34712836390041
H         3.53195211106995    5.28215639342158    2.76551350270317
C        -1.87131862699861    2.72603880083130    3.38771847429739
H        -2.95173210227465    2.72603750805164    3.26477873594959
H        -1.58594204771940    3.60797559060768    3.95638047884521
H        -1.58593675634927    1.84408489445106    3.95635123267961
As        3.50260313414476    4.40037481368711   -0.04733964563552
S         3.48367714162610    4.46452289026065   -2.27283617290778
C         1.11630247801420    1.57131786667891    2.42905806749071
C         2.42804358488442    2.01213235951493    2.75943489925356
C         3.51691895970070    1.13139698238615    3.28672785549664
H         4.49876644626981    1.59849045427351    3.17281626052195
H         3.34975736456821    0.93803040283112    4.34707865218996
H         3.53186664783636    0.16981360530006    2.76546951853630
C         0.67404824839220    0.14430221345137    2.46199859834118
H        -0.32664298687028    0.03342165839756    2.05383801135154
H         1.35717596086184   -0.48309120045456    1.88034416634680
H         0.67295838129445   -0.22281719533830    3.48934660355644

