47
CSD_code = TEFZUC | q = 0 | S = 0 | Stoichiometry = C12H23B9O2Ru | MND = 11
Ru        0.76054239246958    5.19517553944268   10.48411318523910
O        -2.23131038508027    7.89371081917356    9.80595114483909
O        -0.46243611813826    8.30319852106434    8.46752029065754
C         1.96123756897015    4.25814623250642   12.07540080559458
C         0.90115675278823    5.23832158107070   12.68599747192583
C        -0.78660209559707    6.10925551861710    9.20248079883417
C         0.30191405190162    5.67399503226587    8.39056686880829
C         0.70300696805612    4.32457068643011    8.42420594708879
C         0.06595985960186    3.39698504583729    9.28657546915064
C        -1.02285515691670    3.83279369273038   10.07883381924600
C        -1.44040899724821    5.17178799100800   10.04881126811867
C        -1.25138909080132    7.50824030763970    9.20777395655128
C        -0.72014907330649    9.70406340833454    8.52955132378922
C        -0.04356998812245   10.32489594788975    9.74353694092389
C         0.47122576710559    1.95073238107530    9.26719911448216
B         1.01113242652017    6.78910002815678   12.01118732543787
B         2.37330832935134    6.71408717395490   10.86356357757834
B         2.93103243690074    5.02166159025266   10.90911469985146
B         3.55015215149686    4.67110001691478   12.54863559854678
B         2.23294537286989    4.80373578257668   13.69511815947105
B         1.62427532468007    6.44528726798283   13.65213111651971
B         2.61076440643041    7.38070945571110   12.51094669932311
B         3.82335789439824    6.26499952042561   11.81905001089252
B         3.37587744512426    6.13904830588697   13.54225200715889
H         0.03252105761939    7.45249722857381   11.95836523460604
H         2.47328504341957    7.41032386376614    9.91449998705547
H         3.40051030752397    4.36613257965574   10.04084832654324
H         4.32779547048937    3.79658583141534   12.66192443741715
H         2.01042876161498    4.02728165768079   14.54879135516992
H         1.00798618072671    6.85572482733688   14.56478665016946
H         2.81632465197473    8.52861330650578   12.66222055354791
H         4.89199060495325    6.61732228281925   11.47839283475964
H         4.11916628070319    6.40487230895724   14.41205379819504
H         1.70818077003595    3.19384251671829   12.04383660461685
H        -0.04076707862694    4.80750163591194   13.03804409169015
H         0.75100039274743    6.36499534727240    7.68779059001988
H         1.48074112530758    3.97742982405705    7.75239716168457
H        -1.56359527441055    3.11176143764722   10.68454518660170
H        -2.30243484770868    5.50499670304320   10.61628339261494
H        -0.31489959692319   10.10888574914647    7.59990358056929
H        -1.80243408215900    9.86673799841526    8.56763052702155
H         1.01804616980842   10.09184320302988    9.74027489004905
H        -0.48039094248850    9.92680426913394   10.65536040918532
H        -0.17846140973091   11.40234845512662    9.72591596811420
H         1.55048727324760    1.85046232094627    9.15983483786921
H         0.15896225641809    1.43957422055691   10.17675271800802
H         0.00208864201382    1.44476058534039    8.42112926444601

