80
CSD_code = TEGCUF | q = 0 | S = 0 | Stoichiometry = C31H38N4O5SiW | MND = 6
W         3.50411671007350    3.41838248252701   14.14028615506599
Si        3.61488966222472    1.74323731744475   12.26277753356195
O         3.36726476284386    5.50240192052042   16.47569771741637
O         6.08250833313993    4.75618667424599   12.94630358978316
C         1.06679812498733   -1.13101765972505   12.39972661849135
N         1.67900642489205    1.19046933356259   11.84652028834399
O         4.81068584266700    1.57805313101436   16.31888467806896
C         0.29731265012088   -1.19047780388811   13.55791658259470
H         0.42478759442865   -0.43702604477704   14.32113658003158
N         3.99978681288541    2.08838855248931   10.51571482128748
O         0.93551028933958    1.92966817585199   15.16490366288306
C        -0.61626744210816   -2.21511629688817   13.73054653563029
H        -1.20641250134505   -2.25870781023660   14.63360659398518
N         5.60298094728363    1.50758087631217   11.79537795118348
O         2.16662704935522    5.71467725792504   12.47352912886383
C        -0.77506283160565   -3.18016305357078   12.74969477605743
H        -1.48869203710593   -3.97867087830753   12.88686547041202
N         3.32597328378161   -0.05149208867206   12.38518773346424
C         5.31961279984023    1.98488263870070   10.61807224262744
C         6.31244649422788    2.35940394849171    9.59508913348655
C         7.56448161946121    1.84929875997511    7.60656661685394
H         7.78299201402470    1.17988134048746    6.78758258331970
C         8.24402778703547    3.05011435032571    7.72269616265498
H         8.99257143329929    3.31982167901360    6.99287682042621
C         7.96491520177037    3.90249076837690    8.77822589836310
H         8.49598792694830    4.83762413919798    8.87402852404684
C        -0.02005731009638   -3.11752856842191   11.59070218108207
H        -0.14476049804547   -3.86547585660882   10.82152962624043
C         7.00629364102493    3.55989454801695    9.71523979486443
H         6.78513150060279    4.22259832488649   10.53886268334184
C         0.89574824207705   -2.09526594513991   11.41257918557527
H         1.48126909713073   -2.03997394442838   10.50581798946970
C         3.24958692712769    2.77556490275625    9.49550319260574
H         2.22175386672566    2.74329866034731    9.86088120653426
C         6.60413343138982    1.50140806486052    8.54044958725972
H         6.07719529168972    0.56155129778562    8.45612606074894
C         4.09997187100439   -1.09847358257919   13.00211003424427
H         5.10158449763951   -0.67203533419378   13.07894119802460
C         3.66259017527482    4.24208550453593    9.36117664674663
H         4.63617635170936    4.33280771233615    8.88586756196339
H         3.70849090020598    4.70474220241089   10.34474437781237
H         2.93399254002755    4.77790624044450    8.75744127786096
C         3.61096040036176   -1.42570338652179   14.41387991849918
H         2.66732271448134   -1.96496959247340   14.38631739742538
H         3.47284053789105   -0.50670325031287   14.97949870688040
H         4.34503928097431   -2.04329168500289   14.92589962359519
C         3.30421040726612    2.05572032561514    8.14668030336678
H         2.56534520354723    2.48276145541409    7.47238178808536
H         3.08467112039525    0.99883814916597    8.28011077546822
H         4.28461326990615    2.15810135887224    7.68892682275529
C         4.17692953095719   -2.35576072847950   12.13389119642847
H         4.44919795098795   -2.08820402465008   11.11541659594892
H         3.22446948902907   -2.87904037006580   12.11934652654158
H         4.93209791895404   -3.03042802211097   12.53076115758930
C         6.96636690319096    1.28950622378668   12.23582240327655
H         7.59145485251375    2.11135657595127   11.85414390814127
C         0.30477042956088    1.57243347801301   11.58970604137831
H        -0.34101977104532    1.06273637441986   12.32114012003163
C         7.05078189275434    1.29969766466596   13.75777129429888
H         8.08342303488329    1.15561063247620   14.06680045043398
H         6.44488748915832    0.50707765522876   14.18691549275911
H         6.69884955985482    2.25102947515473   14.14852569681608
C         0.12015590487555    3.07551292766226   11.76354728379775
H         0.74245814665026    3.62779950547947   11.06552896683228
H         0.38871627380376    3.37400572533426   12.77367411157836
H        -0.92019604076063    3.33813197034683   11.58660195121880
C         7.52630760854288   -0.02091796634041   11.66883987804998
H         7.50886436886949   -0.00221408476132   10.58175557673904
H         6.94237539652941   -0.87078882515175   12.01114123505833
H         8.55544378856500   -0.15079157454972   11.99472749833395
C        -0.13891912731575    1.12816469365510   10.19042371865940
H         0.46987619750049    1.59985839820112    9.42407282382944
H        -1.17795533680685    1.40562249309151   10.03036274029362
H        -0.05090782557175    0.04908642221061   10.08917064409719
C         2.01061178906863   -0.01537114918839   12.20731066773706
C         3.41708089504385    4.73973040577120   15.62101294466484
C         5.17525906026102    4.24832695182051   13.43623595819471
C         4.39266277777412    2.20070158536310   15.45031334923792
C         1.83697917456378    2.52686714141782   14.77531714592419
C         2.60402525483419    4.80601113308397   13.02104028275409

