82
CSD_code = TEGCAJ | q = -1 | S = 0 | Stoichiometry = C18H54FeN3Si6(1-) | MND = 3
Fe        3.02612854264341   10.06395705942989    4.86898045485771
Si        5.07861664794435    7.39747566901002    4.23754109897125
Si        5.75143806265481   10.35573553617944    4.18020099110614
Si        1.85131680159280   11.25861529919102    2.32689672059836
Si        1.58722406729342   12.73952768837720    5.02094746036928
Si        3.66293708154624    8.73093388162481    7.96108673161539
Si        1.12162589940365    8.54994698720473    6.31495452882445
N         4.73010905449535    9.03635949865530    4.52490763144355
N         2.08770447172814   11.45798620894027    4.00750286302742
N         2.76338299052593    8.94840543181178    6.53501757057388
C         3.54044194121704    6.29314641069165    4.43571216110823
C         6.45936595231285    6.68394232594416    5.37351588016811
C         5.74322125485535    7.08291496790221    2.45438101535825
C         5.89375764534755   10.88036633433664    2.33132118924232
C         5.08691996321442   11.85857023863318    5.13443286911580
C         7.59810360357695   10.08279046732997    4.66047903339835
C         0.01828062640985   11.19970181336012    1.73411696160960
C         2.69237386237171    9.63006016665147    1.81226824066907
C         2.57664251448024   12.73206406461608    1.32111934298045
C         2.12826557089108   12.31999609148722    6.79725155851563
C         2.28086402527973   14.48203121993840    4.57693612004464
C        -0.31841555153255   13.00859208952080    4.95161264107321
C         5.34631646104380    9.61794428641260    7.89155727013655
C         2.75694717389737    9.41657327243609    9.51984645798036
C         3.99499816541247    6.88588128163614    8.39910719020249
C        -0.17121702650542    9.72979365682139    7.12199731038967
C         0.77840094641707    8.54557636723582    4.44592553326640
C         0.60784516057939    6.84026621683109    7.04211168650770
H         2.89916075964119    6.33570281513556    3.56266703323456
H         2.97194211858243    6.64484184299902    5.28454077837169
H         3.80457466071733    5.25240482759893    4.60082629957660
H         7.43467346490728    7.06372170548188    5.08676475724800
H         6.50480887146772    5.59851449543024    5.33278952825770
H         6.28733924470827    6.97272042110502    6.40353753146091
H         6.68211251617290    7.60500915843862    2.30122607350468
H         5.04425290649147    7.44163090890222    1.70647230088414
H         5.91853495562082    6.02743566130954    2.26537790523010
H         6.16853090886311   10.03684307359697    1.70739761225571
H         6.64548337111874   11.65227918143414    2.18835109452455
H         4.94836195080861   11.26345499318528    1.96956398984855
H         4.41124193495541   12.42329535930301    4.50643951428884
H         5.86528185235128   12.52512587175287    5.48920628359863
H         4.52524160014510   11.49731228072506    5.98571930026607
H         8.03735445390239    9.30945411578476    4.03970210457740
H         7.70331498033895    9.77138372890142    5.69275869881915
H         8.18569331789554   10.98633778740425    4.52490689065308
H        -0.51914792334679   12.08768678099082    2.04991581265626
H        -0.50569686166959   10.33962580357440    2.13701622530207
H        -0.04451592229740   11.14508706326570    0.65060148938103
H         3.35257539902991    9.30299367734936    2.61242697451582
H         3.28267399905734    9.73597731956709    0.90837983484346
H         1.96342017755738    8.84813597807865    1.63346185907764
H         1.87883317161140   13.56342099670378    1.29853999119470
H         2.78686432566985   12.45404598886258    0.29237126649041
H         3.49854354986611   13.09339771275645    1.76262071869004
H         2.99076499113357   12.90425388863651    7.09619938575573
H         2.39681589030141   11.26712937132845    6.84733418206166
H         1.34404974719808   12.50421476123448    7.52375634762702
H         2.03203158219303   14.74860680480597    3.55513057285728
H         3.36088236948022   14.51908361998802    4.67083800476626
H         1.86786227055821   15.24870101749047    5.22700549515598
H        -0.59180482620684   13.60824548225055    4.08889940946220
H        -0.68608663643412   13.52155788291466    5.83562629096731
H        -0.84583476696414   12.06470691090067    4.87183189464691
H         5.25057718193267   10.67948579249274    8.08967475756946
H         5.75738018850845    9.49939451048731    6.89939898997000
H         6.05090870066176    9.21031869101056    8.61102447640415
H         1.82843687819525    8.88021081100112    9.68652420234969
H         2.51089723562235   10.46622920600712    9.40012131246800
H         3.36029083895817    9.31768011495054   10.41799998617505
H         3.09404936182620    6.40357663932208    8.76438031852202
H         4.75918578788458    6.77647898900073    9.16454605114891
H         4.32203128602909    6.34248419999918    7.52062211319518
H         0.03651500402949    9.87119772131740    8.17704380583854
H        -1.18173902448526    9.33870533415912    7.03657034340748
H        -0.14845588248722   10.70301345838590    6.64877678792231
H         1.71072584354859    8.35569827746554    3.93083717216407
H         0.42031049135978    9.51791666048497    4.13598033273372
H         0.05414298566648    7.79874446173398    4.14033274276504
H         0.67010834802908    6.85824771145652    8.12477154075228
H         1.25307730804292    6.04375474555217    6.69156807549303
H        -0.41307284783026    6.58156885377593    6.77589502592560

