87
CSD_code = TEGDUF | q = 0 | S = 0 | Stoichiometry = C48H34P2PdSi2 | MND = 4
Pd        8.28644725784465    4.29455588118902    7.35391460878156
P        10.65746546245228    4.38575083588877    6.63667803221716
P         8.07325077594955    2.10263777716259    6.55026345602730
Si        6.02049229066187    4.83313497686427    7.63115044265819
Si        8.47986872310024    6.47031838624936    8.13004047304363
C         6.09357194976793    5.60110603080718    9.37737403945182
C         7.24967894101150    6.36255438248255    9.60144164510352
C         7.42238008704430    6.98988220760132   10.82311052112903
C         6.47278483460877    6.85511030401677   11.82541863848863
C         5.33409752389564    6.10353522237090   11.60014111900740
C         5.13989747589532    5.48181096217126   10.37523246597059
C         4.48342844532736    3.71989900227613    7.14142862740592
C         3.95597654570039    3.02667003764703    8.27819381378095
C         3.20140416067085    3.02526872215911    9.50127104001362
C         3.88099723046752    1.88560991321094    9.00240863249033
C         6.75646582940309    2.03551211716659   10.54688900282025
C         8.03839872788586    2.47904184272751   10.32536414763659
C         7.77717864466854    1.16318471874267   10.89858991855012
C         8.88447074626957    3.42930531903900    9.89442221183178
C        10.27673310550166    6.53911260456332    8.75061980244051
C        10.58807889221201    5.24490181735553    9.39939777159227
C        11.11376965632289    5.44311963264136    8.13745971830651
C         9.81968747317703    4.25467971994466    9.86816894224304
C         7.79497426123298    8.01488535319265    7.16009500621389
C         6.69102658807744    7.44637511173973    6.41507941116927
C         5.90539867236353    6.31896991208113    6.48624024226490
C         5.80391140299886    7.19137447630478    5.35374084538277
C        10.09426616252699    3.21424797462354    5.16375270340804
C         9.71815068449112    1.86209685358463    5.75035783281942
C        10.88714718581347    5.81280412803152    5.54225024941294
C        12.08044858294644    6.50630375399994    5.42018313474593
C        12.16348043946493    7.64951937400580    4.64475395730455
C        11.03238282618753    8.10961784863116    3.97182322193723
C         9.87955281032655    7.40569199411268    4.15568815509371
C         9.72561716494836    6.29921660707989    4.91245488519454
C        12.20656095148176    3.43305058624580    6.84554110088460
C        12.39775001840076    2.73120211875774    8.03230657012012
C        13.55408762552948    2.00211090878328    8.23720729837328
C        14.53956645302922    1.97964616109483    7.26386407172964
C        14.35706885310606    2.67715492962875    6.08165021925581
C        13.19198449095170    3.39169379189973    5.86641773908469
C         7.06401084458859    2.01276898813886    5.03619082002192
C         6.63966832545140    3.20747998583958    4.46177481612684
C         5.93703160980108    3.20276726680850    3.27012119738736
C         5.65560834534877    1.99998579375419    2.64404942071906
C         6.08963276995828    0.80716115031941    3.20235872009275
C         6.79869612426153    0.80939727469051    4.38939964502836
C         7.73330381735003    0.57289837565995    7.45632491121367
C         6.44957636144673    0.03192834687620    7.47080960094033
C         6.16402700748865   -1.05301071261317    8.27880344037038
C         7.14173387198432   -1.58274368765647    9.10473526309536
C         8.41026646557705   -1.02596552632893    9.12123530255652
C         8.70772899804156    0.04500256486467    8.29940820889588
H         8.31220786218843    7.57816114850541   11.00015327972305
H         6.62584614540264    7.33500388815605   12.78151308103625
H         4.59228763291261    5.99396666193192   12.37755570222125
H         4.24449576778938    4.89642955297403   10.21266205096912
H         4.78324674608931    3.03541526671189    6.34701617247257
H         3.75314136820094    4.42723365647611    6.75448738291853
H         4.17474296015255    0.86417024665631    9.06887675287482
H         5.74134313685401    2.34091954568544   10.45634641821425
H        10.78209398422382    7.44780775668606    9.04158689877389
H         8.48038985278836    8.56298777263361    6.51533644837977
H         7.40096672905724    8.70024579525834    7.90704315530146
H        10.93991051042741    3.12345122808982    4.47468336010610
H         9.24809157244623    3.63313359841476    4.60819525174268
H         9.65220465435840    1.08280250740637    4.98168777056362
H        10.45822644193917    1.55726978882299    6.49901974635004
H        12.95081934219730    6.14599835909879    5.95136480572845
H        13.09902491158456    8.18234908137551    4.54990095645656
H        11.08056496315850    8.98435725787825    3.34219355155746
H         8.76660920039089    5.80181988922248    5.07579204354860
H        11.62715819844371    2.75420625624951    8.79257515466630
H        13.68773560855444    1.45177836910185    9.15733446439792
H        15.44751326539531    1.41749660147794    7.42534757945137
H        15.12431003708231    2.66190230331645    5.32073032667410
H        13.05187134912467    3.92304205549858    4.93460649664736
H         6.85273433081313    4.15323992307948    4.96179691850856
H         5.60807218504124    4.13639232634005    2.83959218053493
H         5.09963921221632    1.98975932198491    1.71852296897859
H         5.87664095315373   -0.12961125648521    2.70821253344624
H         7.14409271534109   -0.12114153854007    4.81938371986052
H         5.67975306774667    0.46258649662799    6.84333664866313
H         5.17210588649999   -1.48345938623252    8.27112791268856
H         6.91055981423267   -2.41849478670439    9.74721651241198
H         9.16688793171659   -1.42329560540056    9.77954412233218
H         9.69422716736703    0.48834179928171    8.32916056972269

