57
CSD_code = TEGFET | q = 0 | S = 0 | Stoichiometry = C24H28Cl2NPPd | MND = 4
C         8.80181188190837    0.37621065818832    9.87303011243130
H         9.53679645333261    0.96802747987476   10.43789215661596
C         7.70308437170586    1.32689316764236    9.38199054295548
H         8.15611640424322    2.00254094851725    8.65004985579746
H         6.93346044260137    0.76431937136104    8.85196212023173
C         7.02506623778009    2.21459481411112   10.44318682006286
H         6.40364651459667    2.93853312816200    9.88865462305058
C         9.54428482342449   -0.27147489993161    8.70585533835408
H         8.88004108333031   -0.85183965768224    8.07211103649512
H        10.32471921619631   -0.93260140203230    9.07728645378164
H        10.01292963588165    0.49621415702163    8.09152115746562
C         7.38712569212133   -2.26877783259796   10.38359001709252
C         7.24895161081127   -3.37434508683646   11.22689845192531
H         7.68650635146595   -3.33394531396267   12.21727301628761
C         6.55061208690779   -4.48886756484223   10.80697752752239
H         6.45292650037454   -5.34129139928212   11.46225815094212
C         5.96570606618478   -4.50781444547018    9.54936033718436
H         5.41751763042423   -5.37767902807999    9.21961640446368
C         6.07120081573501   -3.40329775085690    8.72197055226427
H         5.60157205477541   -3.40978069882681    7.74885671908013
C         6.77201261754826   -2.28313935928236    9.13650407357682
H         6.83265561552525   -1.42766348425303    8.47976259446571
C         9.83402496898334   -1.49835183414522   11.68850600051071
C        10.48556501895895   -0.75304637181270   12.66818056751218
H         9.98304906420638    0.11550054705326   13.09276616821879
C        11.72984833359775   -1.14373176169150   13.12302205884808
H        12.22938608632864   -0.57283832757317   13.89114214177774
C        12.32855435655877   -2.28054997934282   12.60164740228499
H        13.29745209011189   -2.59273699995224   12.96208248166381
C        11.68235549646408   -3.02462582504054   11.62874661902103
H        12.14848430445754   -3.91355853111036   11.22939443127686
C        10.43563628831201   -2.63747937739830   11.16806416005969
H         9.92588632719043   -3.22486213961366   10.41656076968095
C         8.03227586729106    2.98181763981925   11.30153054485512
H         7.53710549632158    3.80384115401033   11.81448291121825
H         8.83866923607522    3.38838841057890   10.69738888628245
H         8.45361057667202    2.31228955194556   12.06772619880000
C         4.97454836002790    0.82736331947811   10.79895906075807
H         4.47158350537715    0.30393786993800   11.62909973418606
H         5.26754371059789    0.08054798746276   10.05354441043449
C         4.03290559854562    1.84087978872038   10.19811849414607
C         3.77945073502588    1.87630939357182    8.83430313113236
H         4.23772056222910    1.14459313265577    8.18326835596257
C         2.93522450662316    2.83670956650784    8.30317339760688
H         2.74130821369265    2.85346967036516    7.24083472746483
C         2.34292175919089    3.77348027516493    9.13191250067391
H         1.68567858728398    4.52306666597820    8.71731549389002
C         2.59057850179266    3.74384537573151   10.49488235790227
H         2.12501159424762    4.46921984395121   11.14505444273559
C         3.43018209277582    2.78228648609886   11.02606174171755
H         3.61265311861903    2.75133842824141   12.09128513817991
N         6.17082526426459    1.46498624280740   11.36522650179266
H         5.84613198902172    2.10958635519575   12.10147453832797
P         8.22514764738638   -0.85545555733370   11.15174840412671
Cl        7.72394876098432   -1.34595847820885   14.27002166034142
Cl        5.83231818852175    1.33487408501098   14.27231975747237
Pd        7.03706968538685    0.14894759199452   12.74414674709242

