89
CSD_code = TEGHAR | q = 0 | S = 0 | Stoichiometry = C35H51NSiTi | MND = 6
Ti        5.31935475344193    2.13366095710650    4.26172704803898
Si        3.08986428870618    3.81518463649587    4.57114749155238
N         3.74816729886980    2.70112481703465    3.40523422847951
C         6.97115981820106    1.76390660148719    3.07790360045415
H         6.86323076699659    1.07669217908890    2.22688420692795
H         7.74833936586959    1.32913095534612    3.72878287777798
H         7.38368117396730    2.70354493403036    2.68214234373718
C         4.92235442717833    0.19230371185520    4.84009367776767
H         3.87923373575266    0.10852318363049    5.17574527670735
H         5.56547449543965   -0.04979728903136    5.69958798735150
H         5.08758365059134   -0.58556195691903    4.08291302230811
C         5.92655355446801    4.25461685532469    5.04878966189000
C         4.67922081920153    3.80005200579931    5.60090291136696
C         5.03117524580173    2.85444861601586    6.62062850902863
C         4.22874698918082    2.11669757351351    7.50674838476371
H         3.16061480763219    2.25748273362128    7.46501043091243
C         4.80077046099723    1.25601008704622    8.42174875748771
C         6.20489711256129    1.14594391772225    8.47375897397728
H         6.65910151482045    0.48208780019341    9.19379847049003
C         7.02726488823137    1.86943453969214    7.64056363294577
H         8.10294908231085    1.77760099348449    7.71988666072701
C         6.46056664417099    2.72651454138913    6.69747850344652
C         7.02469017004849    3.61165615598419    5.71790694279198
C         8.33353341055925    3.94390020603650    5.36789923899033
H         9.17019324509293    3.49829885127332    5.89072766206921
C         8.55156856103379    4.84478480122406    4.35002191507709
H         9.57066732467658    5.08767469625638    4.08925013998739
C         7.49255359177605    5.45159578269316    3.64394778817844
C         6.19156031448879    5.15965994760772    4.00467241632652
H         5.35517476602706    5.64442645228035    3.52418213676390
C         7.82942438483158    6.39855737736958    2.50004985095934
C         6.58231846209738    6.96525798212784    1.81491514729528
H         5.97259068478468    6.16751357550958    1.39556058058924
H         6.88379830486193    7.62235904968771    1.00107820041695
H         5.98282553898124    7.54738692807555    2.51097774941513
C         8.63834153425418    5.63234196020673    1.44275375665811
H         9.56771365893904    5.24854459169282    1.85427383473269
H         8.88096521409189    6.28608280301605    0.60720787803275
H         8.05866737858634    4.79140937007104    1.06489055941795
C         8.65556796806321    7.57510138251335    3.03789852705756
H         8.09453875119080    8.10707169219629    3.80347560911587
H         8.88905422672343    8.27024892392880    2.23371593611831
H         9.59014157160330    7.23623953329335    3.47597114786178
C         3.97051725390032    0.40631872612911    9.37363842496856
C         4.26091322502846   -1.07547625023540    9.09267095537493
H         4.02161655332776   -1.31393240439588    8.05793909482293
H         3.65792120328101   -1.70774470005314    9.74158048307964
H         5.30716349811560   -1.31388173601760    9.26310689395790
C         2.46465347148864    0.63155071485537    9.20846183774466
H         2.19792960528843    1.66479706992390    9.41786138276204
H         1.92456272707673   -0.00340293674086    9.90849098900358
H         2.13839947852017    0.37593487821261    8.20280323379992
C         4.34481150175835    0.74617197779569   10.82296875306358
H         5.39287644016177    0.54070900930582   11.02175027036274
H         3.74581649087488    0.15643228454599   11.51429075252321
H         4.16192658412487    1.80070994968758   11.01919030210053
C         1.53319771354199    3.11125664440620    5.44935326908129
H         0.64823011134175    3.26776362759410    4.84084614352901
H         1.35869233891352    3.59995964625914    6.40197255598096
H         1.62792874473127    2.04314176096361    5.62463791770874
C         2.60337152490416    5.58143925541273    3.97528465897597
H         3.05664167529674    5.83418732840710    3.02179019642773
H         2.90832059712856    6.33636362903621    4.69308585628294
H         1.52783929564647    5.66348922048405    3.85598704610954
C         3.32124011144748    2.43458324363116    2.05459995510193
C         3.52510154103007    0.94211338362877    1.72908823922631
H         4.58038069075896    0.68724098857934    1.89124263739052
H         2.91747314876341    0.34778349389366    2.41895590181669
C         3.12772445788597    0.65105598920517    0.28202352474362
H         3.28534245760387   -0.41261374217043    0.06954580025094
C         3.99043126673019    1.49040771574695   -0.65989150515554
H         3.72602009854292    1.27496877628688   -1.69756050256086
H         5.04421346469397    1.23781350393873   -0.52125325483220
C         3.76954951630978    2.97337998530181   -0.36528431259418
H         4.38183477074388    3.57574865052667   -1.04656924932633
C         4.16833088258345    3.27433304519436    1.07817617240207
H         4.00803117245162    4.33292560627145    1.29882392464835
H         5.22775455981132    3.04587443794926    1.24989328565720
C         2.29452946567913    3.32127239210337   -0.56591966340382
H         2.13228074107362    4.38311873031287   -0.36796221946541
H         2.00351141029996    3.12512239362091   -1.60022897586074
C         1.44179731848834    2.47899372207459    0.38204706393413
H         0.38456006210618    2.73265839317931    0.24295169875673
C         1.65399370736216    0.99766312880472    0.07723140680657
H         1.03348580670434    0.38851368439506    0.73798564223233
H         1.35921886439437    0.78329313394099   -0.95242112692765
C         1.84035494789048    2.77096369634099    1.82849505876968
H         1.23531871011940    2.17723906168623    2.51612055445765
H         1.67239683518988    3.82444443286802    2.05254525058034

