61
CSD_code = TEGHEV | q = 0 | S = 0 | Stoichiometry = C23H33NO2SiTi | MND = 6
Ti        4.89911932974145    3.32300375366722    3.13266307244876
Si        2.49807584437513    2.36687711636340    4.22411880380817
O         4.85086020525863    2.23458330883038   -2.30307880554208
O         4.23053260161229    8.85519039393975    2.17132967390259
N         4.21123165342247    2.08814858118535    4.37115275039061
C         2.72034820928496    3.49363817285275    2.71832078115736
C         3.24273645734639    2.99931501975944    1.47470521261957
C         3.20772311221037    1.71940772738873    0.88841240109568
H         2.71807648796402    0.89887640426102    1.39539877450154
C         3.75567694948750    1.53018313534144   -0.35553671950825
H         3.73200273209474    0.56284065862045   -0.83382968191007
C         4.36003039256787    2.58637074650880   -1.07033324603736
C         4.42296748261966    3.85295607262649   -0.52493450438123
H         4.87063876313694    4.68004719214132   -1.05670135912606
C         3.88133515757113    4.06546964516376    0.74922520165497
C         3.76874757779446    5.24797902501554    1.55175357569491
C         4.17728609856236    6.56737385021139    1.31832576328371
H         4.69923293336281    6.80766037912847    0.40338863465195
C         3.88548198184783    7.52970614975168    2.26383474487194
C         3.17186758970286    7.18790986108108    3.43196951030604
H         2.95483016258770    7.98476128409199    4.12655273490542
C         2.75729176571407    5.90361785120273    3.67604943682075
H         2.18141153466797    5.68109298033687    4.56301858297956
C         3.05254043876663    4.88849911581844    2.74717874265229
C         4.91552949234375    9.28239986214805    1.02398482560023
H         5.88255858847683    8.77751252044345    0.91863156809841
H         5.08228005123763   10.35032567401214    1.15767701892149
H         4.32309182253963    9.12082348747711    0.11652149490995
C         5.45116664032422    3.23265705971642   -3.08543470565324
H         6.33326026925401    3.65663209665499   -2.59238480558852
H         4.74730419685011    4.03835359222532   -3.32194370655411
H         5.75807153419705    2.74262464345606   -4.00837271580496
C         1.36610739347100    0.85293820011875    3.86144566238497
H         1.92083607557283    0.01471446960278    3.45192728723673
H         0.58504009528047    1.10818871642165    3.15253262830884
H         0.87989462635431    0.51028743139377    4.76900142130460
C         1.74338305824466    3.23432451898893    5.76287995813750
H         1.49138210450997    2.50740804984333    6.52810139296551
H         0.83075093212069    3.76333506433851    5.50941061290859
H         2.44001853847898    3.94490446589903    6.19912080027234
C         4.90511162334707    1.05448197483376    5.10684436497482
C         5.21273937778055   -0.11432096272456    4.15126588192542
H         4.28410421826662   -0.57749423820433    3.82515445151783
H         5.82471570193411   -0.86656341214131    4.64399275962523
H         5.74029023777217    0.26564418873769    3.27367096996115
C         6.22629595373904    1.62157863628970    5.65808728324948
H         6.86910316201944    1.93549118541609    4.83227013659946
H         6.74468766654810    0.86878754043410    6.24889334871774
H         6.01500316110549    2.48343349586955    6.29120358934671
C         4.07173681727005    0.54026046544952    6.28839588247293
H         3.83250636247532    1.36470052079725    6.95450378302310
H         4.62868413546216   -0.21122242233036    6.84304803735875
H         3.14616378470944    0.09723463401172    5.93433193350624
C         5.86616203514592    4.75466278233912    4.26092760957110
H         5.90203875818119    5.68865373384970    3.67962246812649
H         6.89608984999366    4.52339734786803    4.56285783851288
H         5.29257246032393    4.96246360662922    5.17550351901938
C         6.50263740457135    2.66479555223416    2.00967969698034
H         7.37808657276295    2.26398844558706    2.53938518441988
H         6.86455061167494    3.52277150430665    1.41907086332756
H         6.18169922394485    1.89701714272075    1.28930757907360

