73
CSD_code = TEGHIZ | q = 0 | S = 0 | Stoichiometry = C29H39NO2SiTi | MND = 6
Ti        2.77935704316623   14.36396335597138   23.63404246686751
Si        0.25373715268497   13.34109388403508   22.94748685225148
O         1.96319902834592   18.14990036451475   27.77151887290188
O         4.03827412472753   18.37182277282573   20.02919727217551
N         1.90391840912512   12.80074742638843   23.07197719131048
C         0.74078653683415   15.15276157656857   23.20664455463520
C         0.96101795537371   15.79942595416357   24.46708591203882
C         0.38738884053957   15.59738582733916   25.73594835363151
H        -0.36219251928083   14.83246615344627   25.88005302552817
C         0.75686402586229   16.40193861075646   26.78313641936865
H         0.32875387254872   16.27046161861903   27.76494889397974
C         1.69815840468819   17.44110083118460   26.62599130325451
C         2.26715132752678   17.68632590401401   25.39259861931811
H         2.96962291539290   18.49289236044535   25.23998923707477
C         1.90692522090958   16.87260357318181   24.31067525136680
C         2.28147068193391   16.91390902259419   22.92753280384987
C         3.11125153653515   17.78665921071920   22.21189939603499
H         3.61059378261143   18.59139428173712   22.73186020853499
C         3.25946499216557   17.59709324802067   20.85255187259210
C         2.58273900546263   16.54467172670875   20.19961401843408
H         2.73445185398878   16.44784010732984   19.13533673428234
C         1.75494089574173   15.68637611322515   20.87882989758805
H         1.21906924762602   14.91328854862508   20.34453004925169
C         1.56773716360078   15.85428456021002   22.26457111218426
C         2.86410385904209   19.22236762955248   27.69357268680861
H         3.86184411856641   18.89104697557950   27.38386922016667
H         2.92094686248146   19.63639119805260   28.69936285944237
H         2.51068943464807   19.99720825731360   27.00413130325990
C         4.72748210785716   19.45442376845180   20.59615050094494
H         4.03991167848632   20.18283205272678   21.04021911911228
H         5.26764610963486   19.92527213492868   19.77596938561564
H         5.44410919808963   19.12385202245138   21.35644893748159
C         3.35167282004451   13.99847301578817   25.58385278949146
H         2.57140306855403   13.41978211305792   26.09876273410535
H         3.44277899806490   14.96204723504160   26.10784897439802
H         4.30172013568502   13.46563466874842   25.72223263863081
C         4.64147872437630   14.71921946549972   22.81242639429646
H         5.40240326314206   13.92979517752632   22.88646102848935
H         5.06322521954753   15.60245170286323   23.32091585855458
H         4.54975015337783   14.98006520818763   21.74678548104681
C        -0.87968216946162   12.61398287722677   24.31696056158937
H        -1.23963210014240   11.62991846126521   24.03479073541432
H        -1.75043216964656   13.23983791187031   24.48142492945079
H        -0.34869518411179   12.51329208198837   25.25942405552011
C        -0.67442088740778   13.04877375224402   21.28641437739730
H         0.00785740157698   12.88299758901014   20.45850355975912
H        -1.29952064712010   13.89907752150309   21.03248008376739
H        -1.32140857093945   12.18009734769559   21.35553883059104
C         2.48419099128651   11.54484676019710   22.66511986033647
C         3.61004753008019   11.15206636833685   23.64070663504870
H         3.18342855370852   11.04400404199984   24.64287882252111
H         4.35173019008748   11.96064867966348   23.66536690935165
C         4.26872535220069    9.84556883398262   23.19788631616865
H         5.06839791588946    9.58659675530417   23.90111362252823
C         3.22712127397324    8.72842716294083   23.17894516244336
H         3.69225915398766    7.78850887926371   22.87379418854592
H         2.81361014900609    8.58914883904437   24.17990756242113
C         2.11350163013158    9.09981005001046   22.20234580215642
H         1.35968480670197    8.30433806005813   22.18872792380554
C         1.45456490307310   10.40639570652609   22.64324258388638
H         0.64918234874945   10.66474547407057   21.95545771411507
H         1.02709349983882   10.29855119355861   23.64165482173235
C         2.69944573911452    9.26762627514680   20.80125388497475
H         1.90512002165664    9.51365183923594   20.09339199273041
H         3.15982585167609    8.33179739391003   20.47668147036276
C         3.74386770684312   10.38348801442068   20.81983703767335
H         4.16587561434199   10.50384870565751   19.81560407788851
C         3.08230023827402   11.69104759004565   21.25224030504825
H         3.80803816974074   12.51329440443114   21.26235135339533
H         2.28159061125722   11.95503146488467   20.55703398098639
C         4.85927352990088   10.02256376702611   21.79966339944886
H         5.61143976851615   10.81444265668395   21.81278984739397
H         5.34817152750377    9.09880388238229   21.48223736125298

