51
CSD_code = TEGJAS | q = 0 | S = 0 | Stoichiometry = C26H16ClN2O3ReS2 | MND = 6
Re        6.35057086170718    3.73584718369320    7.73835343013025
O         4.75119779731055    3.39857411750782    8.01752061831266
O         7.25082528949071    2.22261080872036    8.78773917232856
O         8.06440072294945    4.04689212215601    6.97935733055050
N         6.28839502172557    2.31321695488184    6.00695163816740
N         5.87686831018669    5.49238147033296    6.49884428519491
S         7.56211680332350    1.00724997609594    4.19386711729351
S         5.82268606447978    7.09942420891869    4.48866758278854
Cl        6.77565652967729    5.13710602149904    9.46653457344297
C         6.26245193318178    2.04884432243157    3.69584817728089
C         5.79780094909426    2.31658380204857    2.41984781754158
H         6.26842447368009    1.86581428572678    1.56086062353281
C         4.71634352867753    3.16593252406389    2.28782098043024
H         4.33956899280517    3.39544834355405    1.30316370672997
C         4.08827620323152    3.70681319640684    3.40850733626159
H         3.22158131230304    4.33663135297305    3.27761752241279
C         4.54798567783955    3.44254218501523    4.68122024215399
H         4.05453729871029    3.82058178179726    5.56404830974588
C         5.67458834485134    2.63583974078842    4.82867324668827
C         7.26208839225093    1.45106756164850    5.87511708206304
C         8.03331258633115    0.85731010702167    6.92215229100012
C         7.92644784996844    1.24016815724754    8.29779877130770
C         8.68238370696664    0.48889301415246    9.23415801806142
H         8.57550472865841    0.77502239944662   10.26908309258009
C         9.51756104690931   -0.52694518838869    8.85867812663620
H        10.07952522268393   -1.06603213217299    9.60678202935069
C         9.65298913250885   -0.86264815646401    7.50942985948643
H        10.31880824285572   -1.65564012335159    7.20759653421556
C         8.92067899719572   -0.18031676668944    6.57574046088829
H         9.00555637789653   -0.44959826196306    5.53165764287406
C         4.60287631434698    7.27520636246294    5.71396724708623
C         3.56075456571240    8.18634460735435    5.76614417358188
H         3.42923876944263    8.91153315762631    4.97908277783540
C         2.71086893298746    8.13412504640766    6.85254903974923
H         1.89383702687795    8.83568112371152    6.92052475086134
C         2.89844746860387    7.19154450658826    7.86298330933511
H         2.22204062945653    7.17617187587973    8.70288688931214
C         3.93358186771939    6.28252883881821    7.81481173464916
H         4.08796650262486    5.55165805298171    8.59420758121760
C         4.80224041340849    6.31867314915946    6.72406903319776
C         6.51950344173433    5.77527204667897    5.38992847697802
C         7.70969231756306    5.13281864131168    4.90432784295801
C         8.47831284456032    4.31009028127751    5.77742299983049
C         9.68007731138746    3.76317115520924    5.29628985681663
H        10.25852404048616    3.14895468006504    5.97081885252549
C        10.08190976702205    3.97511447639849    3.99842713140398
H        10.99663743815429    3.52455973180315    3.64398368024607
C         9.31373140938913    4.75503414276431    3.13784824121962
H         9.63003926864804    4.90756445857676    2.11822018909043
C         8.15264986950029    5.33512169849188    3.59382541406867
H         7.55213740092741    5.94581695733218    2.93464315858571

