33
CSD_code = TEGJOG | q = 0 | S = 0 | Stoichiometry = C13H11N2O6Re | MND = 6
Re        1.29722886782589    4.77309224779852    3.58457174622098
O        -0.49340568763105    4.06898873190348    3.31385972490159
O         1.32497755535767    6.08139689541520    2.55410207129890
O         1.83177620566363    3.01482772149228    4.44123645392568
O         2.47874904234559    0.88775817296688    4.20045144995780
O         0.90895228770072    5.42064891882320    5.48453712406155
O         1.76549153328227    5.91010462701986    7.47199009360682
N         1.72238345217089    3.47825317224130    1.94867509843265
N         3.31429952521740    5.22661600149818    4.38069572465365
C        -1.54421533874367    4.61099046984316    4.03565912674625
H        -1.32696719675358    4.62419769297962    5.11040373777305
H        -2.43660539803094    4.00136852637334    3.85504772699953
H        -1.73621278210537    5.64170158639193    3.71185564705871
C         1.60807289058430    3.79853534372383    0.65829607534014
H         1.36903910730836    4.83217234805878    0.44893120889999
C         1.78190886713978    2.86249112741124   -0.34391456644853
H         1.67285368836940    3.16062625190922   -1.37438070590587
C         2.08897758695202    1.54842742550092   -0.01031746745086
H         2.22301474339360    0.80029200240718   -0.77619668423348
C         2.21478923759726    1.22232102283039    1.32875438844721
H         2.45165088575562    0.22779434151985    1.67344608070017
C         2.01288698424717    2.21636821081346    2.27235571091247
C         2.12334360350519    1.96395344348520    3.77815195157522
C         4.48866858004137    5.13641170848169    3.77173182655215
H         4.46171781870659    4.92243494986544    2.71237288497626
C         5.68247250046126    5.31056414174740    4.45049880556265
H         6.61899473052647    5.22374880239874    3.92307878149012
C         5.64815399564123    5.58987581481828    5.81054791956848
H         6.56363647686853    5.71794912052322    6.36812276627635
C         4.41833379539715    5.70021708988571    6.43548378839900
H         4.31052423256707    5.92316719898494    7.48552216366351
C         3.27004243525446    5.50462216148466    5.68133522926665
C         1.87416577338460    5.62448272940293    6.30059411677130

