97
CSD_code = TEGKIA | q = 0 | S = 0 | Stoichiometry = C42H50N2P2Pt | MND = 4
C         2.87261805080943    6.52848910053356    5.22773491234910
C         4.21641282158655    6.39696526995388    5.55457556322961
H         4.94744491705548    7.12370973832711    5.23401209776318
C         4.59642330579330    5.29291808540923    6.29245486235771
H         5.63626447597201    5.16713002448070    6.55751226967836
C         3.67004571319256    4.33411979986387    6.69889468852698
H         4.00805993048769    3.48571557785528    7.27575495664101
C         2.33445976693698    4.45364502587491    6.37142357413562
H         1.61789238272310    3.70794847667871    6.68281022286422
C         1.92635061313988    5.55316187728349    5.62802717238617
C         0.66510221670874    5.97435908996472    5.09076720994893
C        -0.61462756102260    5.43649612393534    5.11795076653608
H        -0.81036233938380    4.51919184673448    5.65341535907608
C        -1.62438194984088    6.09459437932680    4.44563523064499
H        -2.62672375348983    5.69205545767143    4.45260466765360
C        -1.36947609640051    7.27452644839205    3.74903696948955
H        -2.17841799497587    7.76241892639827    3.22461399811489
C        -0.10710094128879    7.83241692094385    3.71025412033122
H         0.07251392551838    8.74114017741119    3.15563568283493
C         0.91407827435153    7.18150365117610    4.39024752989291
C         2.92193473035893    8.56808831731252    3.78933979944979
H         3.71717560948478    8.97679152744492    4.42492742809776
H         2.20613296402836    9.36945859188530    3.57811507829362
C         3.47330162787358    8.02198915553047    2.55324830323929
C         3.87942102526524    7.45211540904709    1.56935061072465
C         3.48987380209185    2.96921602508042    0.19577658184992
H         2.98006860901885    3.17927400989600   -0.74878886162185
H         4.52413211192872    2.71948640626964   -0.05905198090516
C         2.81804982862513    1.80876480966183    0.91659651026597
H         2.93171951306579    0.89790579122227    0.33111401903939
H         1.75443426531572    1.99100524989517    1.04908968459351
H         3.26260745808637    1.63702563849322    1.89459302127962
C         4.66291102311923    4.21667162637035    2.55512633105053
H         4.39254583223536    4.92994059244938    3.33827118499517
H         4.49633804136439    3.20773303827808    2.93984986278691
C         6.11652264690314    4.42527134508434    2.14368347947822
H         6.77966039906274    4.37630381550922    3.00520904821793
H         6.21704034974068    5.41497499383347    1.67863804863620
H         6.43004576642178    3.67448389876878    1.42018183894864
C         1.92787501521356    4.76779485028511    1.88629586500081
H         1.64968395310576    3.86309106515022    2.43153367936788
H         2.03161799215412    5.58072435784459    2.60597428656155
C         0.88662272904014    5.14847486729540    0.84255613361035
H        -0.05867851055257    5.40077573150714    1.31929703786160
H         0.71668642022309    4.33667298456639    0.13747763005309
H         1.23774470809930    6.01993039050751    0.28713196641962
N         2.23920449433955    7.51611133671604    4.51625961493234
P         3.58121383472071    4.57141979669609    1.11101529676016
Pt        4.46424084721270    6.35388167052453   -0.00032544681452
C         6.05912987484839    6.16542292648031   -5.22199815881593
C         4.71436020525776    6.30341003567303   -5.54201471507829
H         3.98148640478426    5.58037625978657   -5.21733080382787
C         4.33608942206083    7.40908355923686   -6.27839212182970
H         3.29553540538193    7.53997829624395   -6.53816942470710
C         5.26516178620943    8.36313474243319   -6.68983548614314
H         4.92842642954410    9.21301393730584   -7.26527669038216
C         6.60179640748439    8.23714620028678   -6.36907540102119
H         7.32042953501665    8.97920438565863   -6.68436170800545
C         7.00822604526681    7.13587109529694   -5.62735498230701
C         8.27000640043862    6.70847476689701   -5.09620104856424
C         9.55236828332616    7.23965251792409   -5.13047735975621
H         9.75000205299279    8.15576276549259   -5.66732717656764
C        10.56233140979399    6.57644767370124   -4.46350842631993
H        11.56673210213146    6.97370872962388   -4.47610003587707
C        10.30503489368986    5.39799015094351   -3.76524472970215
H        11.11427250009591    4.90592320851787   -3.24519692348400
C         9.03995773520329    4.84674986167980   -3.71942556847023
H         8.85876726612461    3.93891661998373   -3.16380081639326
C         8.01847578516842    5.50282138450556   -4.39396889049914
C         6.00568682243687    4.12680571924546   -3.78326881692781
H         5.21039457434458    3.71716843774546   -4.41832197491353
H         6.71981471261279    3.32497964235837   -3.56836460363861
C         5.45372260511872    4.67839890216888   -2.54984248615557
C         5.04790307962728    5.25347709355960   -1.56884878006965
C         5.45150404918872    9.73266372825309   -0.19003331882417
H         5.97042554319051    9.51742080430557    0.74853304271102
H         4.42006389432213    9.98248058738577    0.07613768080121
C         6.11783668846274   10.89576439534426   -0.91169916204469
H         6.01523399529875   11.80249944095430   -0.31776069245218
H         7.17901109596115   10.71111109789055   -1.06006002669616
H         5.66032723858516   11.07653893197630   -1.88211878370507
C         4.26394755854855    8.49764823784385   -2.55076347966370
H         4.52555283745167    7.78156719035979   -3.33434738542602
H         4.43724395575972    9.50481161052636   -2.93696224909227
C         2.81064449093833    8.30052537605655   -2.13286942919793
H         2.14414601935838    8.35315912911460   -2.99156664258398
H         2.70491704107960    7.31236691941692   -1.66576948646965
H         2.50579033297751    9.05461351036375   -1.40915233704942
C         6.99889680442339    7.93209036315404   -1.89399020563223
H         7.28303895908135    8.83977656292320   -2.43101172292190
H         6.88574283521234    7.12747804274436   -2.62150790793401
C         8.04017241867751    7.53207120661446   -0.85756673190199
H         8.98151775565607    7.27555846641981   -1.33984019595549
H         8.21981045964507    8.33567345056978   -0.14551936394000
H         7.68275499835350    6.65860913565932   -0.30929724876994
N         6.69107003114195    5.17495963377053   -4.51313632089362
P         5.34953641241998    8.13480997399611   -1.11183880971837

