106
CSD_code = TEGQOL | q = 0 | S = 0 | Stoichiometry = C55H45AgNP3S | MND = 4
Ag        7.05576868501603    9.09887941212456   10.08932895207660
P         6.25207842335152    6.69329397795927   10.68402863783984
P         6.05066408782522   10.80909959036869   11.72650872718425
P         5.89650955078669    9.52380024891061    7.88569440326189
C         4.61536895194466    6.04757186583343   11.16606102805236
C         3.56215733469942    6.30159044711608   10.28888184250268
H         3.76570523565466    6.80295743119499    9.35063433913982
C         2.27532916711112    5.92142554612122   10.61140376374340
H         1.46589749644865    6.12005140816281    9.92356863292163
C         2.02468047285927    5.29326386246301   11.82233546508122
H         1.01795423988290    4.99772983475154   12.07951458677507
C         3.06499620325855    5.05073320439208   12.70422720364724
H         2.86938361541613    4.56445080495800   13.64931051980278
C         4.35742718356156    5.42962249400111   12.38396528962000
H         5.16704140523907    5.24435455876516   13.07632263229620
C         6.72889039871559    5.55741812347201    9.34383804609720
C         7.87213128373173    5.89685303329740    8.62407092738154
H         8.41787700324057    6.79573983588687    8.88710128989713
C         8.30876704066136    5.09125566363404    7.59069829920275
H         9.19802248218490    5.35853637720154    7.03961819553446
C         7.60185813879741    3.94575999279508    7.26052091863707
H         7.94072414039862    3.31546936163382    6.45120152853898
C         6.46027683607991    3.60840459522101    7.96855181099113
H         5.90926218689443    2.71413551609645    7.71331065010572
C         6.02109239544286    4.40782387689008    9.00933003249560
H         5.13135714640839    4.13662639749698    9.56103476253176
C         7.32455196033665    6.14541821077692   12.04772395081134
C         7.95437668485921    4.90636192751415   12.07064194494464
H         7.80346495967617    4.20690661544353   11.25982944234745
C         8.79068707069166    4.58209490872979   13.12332838252709
H         9.29212028294138    3.62527142538433   13.13210709744155
C         9.00383891124673    5.48431770941376   14.15226963828325
H         9.67468628489429    5.23187551608318   14.95984809082552
C         8.37707620688145    6.71941711112561   14.13342116877629
H         8.55384064059825    7.43454382075185   14.92387187545125
C         7.54300769384388    7.04920111028872   13.08348674396179
H         7.06966828390008    8.02529544665289   13.05115910266558
C         4.35184498667631   10.57946499762402   12.36075740116445
C         3.44610965094945   11.61467636750464   12.56801492744916
H         3.73170755238924   12.63654816133965   12.36070842095797
C         2.17411202579430   11.33391581185317   13.03475409318706
H         1.47387986699644   12.14155282044702   13.19309318655250
C         1.79497986667693   10.02730609670822   13.29777887968772
H         0.79768043721246    9.81655352624726   13.65510352083393
C         2.69508240908276    8.99244707043257   13.09986729888230
H         2.40748363260416    7.97032795496914   13.29802222126770
C         3.96567928472721    9.27002823475987   12.63422763006834
H         4.66923718712825    8.46240233438665   12.46502385997810
C         6.97167406267732   11.03165308323040   13.28566794626309
C         6.39790112698398   11.59846795708257   14.41986364688984
H         5.37044005545119   11.93460205845643   14.39862062965390
C         7.14576354811757   11.72528216515724   15.57601234242184
H         6.69916993024454   12.16461529389905   16.45651164660493
C         8.46095798488326   11.28761885860671   15.61064095550402
H         9.03594381556436   11.38350511808831   16.52008744013625
C         9.03481715206694   10.72448634980466   14.48264792729062
H        10.05659972275085   10.37615216537995   14.50354824728668
C         8.29291609131138   10.59571129693279   13.32238867868469
H         8.73345568187453   10.14585956980582   12.44073876061315
C         5.99413521583596   12.50153597863785   11.05963022987545
C         6.93511823479453   13.46121934914352   11.41617916165753
H         7.68153527012778   13.23044706165746   12.16352076998856
C         6.91368919914419   14.70730655565041   10.81541805570226
H         7.64419618494645   15.45082321231572   11.09952238853044
C         5.96099522706232   15.00398640693017    9.85554255877387
H         5.94508683137466   15.97924581233416    9.39202464443936
C         5.03132642655741   14.04522669306146    9.48463099363672
H         4.29173040369321   14.26946425838113    8.72989614418118
C         5.05440571190379   12.79634740559855   10.07253536155447
H         4.33665372893436   12.04345265094252    9.77176401359021
C         4.07524200954065    9.44879633194165    7.79846320513934
C         3.36610247220360    9.30789971718118    6.60860399728811
H         3.89556981681088    9.21295790472350    5.67019825386015
C         1.98364822000942    9.27048609259126    6.63172200724518
H         1.43620061226250    9.16200044556267    5.70642466571996
C         1.29832812109425    9.36790703241989    7.83315693775854
H         0.21869343558693    9.33630521370109    7.84110915597442
C         1.99858228188357    9.49415773659051    9.02137228164792
H         1.47545099875876    9.55589577026504    9.96483988621139
C         3.38035924720030    9.53007334211135    9.00018776707365
H         3.93484550167738    9.60311398196129    9.92795625458242
C         6.35656985683868    8.56197900507482    6.41238948007075
C         7.27082568851624    9.02773485834576    5.47419474839465
H         7.67678447482966   10.02583929980628    5.56630855440455
C         7.65735446673984    8.21205536736232    4.42580643750785
H         8.36391028231483    8.57856725997728    3.69536664994912
C         7.14540846764543    6.93014937708517    4.31178398193581
H         7.45068345876877    6.29787018508049    3.49126111904075
C         6.24657306698366    6.45631385881925    5.25467752810802
H         5.85287128123293    5.45369044618282    5.17529143551151
C         5.86005655039801    7.26397529726932    6.30523505550468
H         5.16876650242668    6.89236601293784    7.05108843719016
C         6.25519962635579   11.23687104071306    7.37556830389707
C         7.41527087746593   11.80688677807647    7.89239955138141
H         8.04243744881599   11.22211494470545    8.56124439378948
C         7.76607517417381   13.10107148934639    7.55907770614640
H         8.66741065915623   13.53642483442263    7.96379997604500
C         6.95393809024891   13.83812751693932    6.71310796193100
H         7.22172357696331   14.85183894144596    6.45432835584240
C         5.79433142745188   13.27778203513716    6.20223610698854
H         5.16041665748980   13.85534838064571    5.54462430101199
C         5.44109945449802   11.98127360074106    6.52972252712976
H         4.53110622481257   11.55257910508577    6.13457695843250
N         9.16103652998089    8.78251796089854   10.39146825910798
C         9.96867807316696    8.15378266062810   10.97358068605086
S        11.07360077351082    7.33086223372367   11.75373316515586

