64
CSD_code = TEGRUS | q = 1 | S = 0 | Stoichiometry = C18H39N4O2Zn(1+) | MND = 5
Zn        1.99959935800416    0.31603455305194    1.08200245228341
O         1.38572129911768    1.21074083684430    2.70005646063010
O         0.98615343805613    2.59433956059169    1.07277948173755
N         3.29308728194892    1.49780788096832   -0.15337303941693
N         3.92213252443556   -0.39610401739497    1.82765703400508
N         1.15790804757024   -1.59494413001700    1.66132592360675
N         0.46721794263472    0.18165100054956   -0.38007099499883
C         4.68237716618911    1.31347965027638    0.27329183436193
C         4.72840306237488    0.82526603270966    1.71705083091614
C         4.01655062500924   -1.11339437855746    3.12593488300616
C         3.01075151194751   -2.27974940980116    3.10750974220310
C         1.51783820270356   -1.93470086734104    3.05042576439602
C        -0.25940009178411   -1.29802327650916    1.43768632835886
C        -0.44560301022436   -0.91113995843139   -0.02835815851123
C         0.82903889325353    0.28794974770024   -1.81312894434393
C         1.64845277518304    1.58053052148443   -2.00183872349583
C         3.13099064369960    1.55807420737902   -1.61712149111353
C         5.41519277186354   -1.72862200314905    3.28535810918120
C         3.74171000678907   -0.16757300914776    4.29156344586672
C         0.70670136544838   -3.11686012835516    3.58550634429106
C         1.62384922929929   -0.94512291362561   -2.24388959641884
C        -0.43685963247385    0.41414272002126   -2.67184591374854
C         3.80869436673046    2.80325052557905   -2.19467132496247
C         0.95171592546619    2.32979764645546    2.28043045309358
C         0.39112093323126    3.29671809369968    3.29037836538046
H         2.96306316882967    2.39928468911616    0.19837636503174
H         4.29343317588343   -1.04824930866873    1.13534280547521
H         1.38576736877173   -2.40866982909582    1.08885934257728
H         0.00702104115606    1.06186862603250   -0.14320819961986
H         5.14061826943036    0.55946691004569   -0.37599132074708
H         5.26633610767561    2.23567559921486    0.19113342519813
H         4.30236906039411    1.58328314910089    2.37601013924678
H         5.77368981566903    0.65857454694833    1.99603860354516
H         3.24858753405618   -2.93816244289478    2.26643981709257
H         3.18332882599749   -2.85508815846891    4.01660033227154
H         1.31175113487706   -1.05231774588930    3.65792675616776
H        -0.90597841674731   -2.15392093162655    1.65532752433996
H        -0.53771189242669   -0.46801419203606    2.09087190543814
H        -1.49216033621129   -0.64143896304378   -0.19842071834530
H        -0.20842292623690   -1.78135099652265   -0.64317674289839
H         1.60106071654625    1.84089992277805   -3.05930122506946
H         1.16521809267944    2.38559445581211   -1.44612165002448
H         3.61211033766064    0.66917992465822   -2.03617418639360
H         5.46928940725751   -2.28667726037709    4.21526549285283
H         5.63977504871357   -2.41239338031284    2.46841131005751
H         6.18757809549711   -0.96569283086849    3.32119778826466
H         3.54951438655324   -0.74369230025474    5.19159625622159
H         4.59961085281193    0.47105057673847    4.48203392279317
H         2.87878758091129    0.45746280053961    4.08925025524220
H        -0.35119551860486   -2.88072984994881    3.64810091009652
H         0.83628757224608   -3.99376484942518    2.95342125798773
H         1.04022954869209   -3.36895778668344    4.58754549135473
H         0.97310506636950   -1.80047060662323   -2.40347100462621
H         2.12778379002350   -0.74693821457488   -3.18540602486916
H         2.36618614700574   -1.20649064162247   -1.49201492473903
H        -1.00386544727676    1.29812304672394   -2.38889073916106
H        -0.16942134436784    0.50441575977111   -3.72081361545310
H        -1.07711955612830   -0.45749954211949   -2.56984879018400
H         4.87546807535602    2.80812224312136   -1.98953174922948
H         3.68209838750759    2.83533665638571   -3.27284013678461
H         3.36590294477396    3.70312652157982   -1.77329828637014
H         0.86931564497385    3.15372809996425    4.25473499175149
H         0.52161572104934    4.31663800045403    2.94131274567581
H        -0.67487211784469    3.10493941709135    3.40065260952413

