71
CSD_code = TEGTUU | q = 0 | S = 0 | Stoichiometry = C36H28ClO3P2Re | MND = 6
Re        8.74978138046416   13.75004353888564    2.84009896549351
Cl        7.63322478575838   13.18698922453314    4.75134642057324
O         7.59528738481590   14.47731232251515    1.89118628248305
O        10.53935054924528   13.24676104704607    3.86796387039108
C        11.22338911519740   14.04829022960926    4.62582549989932
C        10.80665549607443   15.38676771163714    4.83795184676417
C        11.57607391312703   16.27048993972978    5.58499207774160
H        11.24389146858806   17.29074069652992    5.71466416170612
C        12.75672083411174   15.84209902456343    6.15557298111819
H        13.35839151439826   16.52446809309462    6.73594675582180
C        13.16052747468464   14.52100757583100    5.98993166294571
H        14.07653377507420   14.18315706613510    6.45259900426422
C        12.41906003756653   13.63679509036240    5.24241862233281
H        12.73464593611030   12.61304076331436    5.11116382284208
P         9.22943982497337   15.77446228241313    4.07341894449861
C         8.05467160682209   16.23613404318102    5.37072274549801
C         6.80226785835972   16.67996836023634    4.95113033131959
H         6.59055386022486   16.72645158277449    3.89038832936192
C         5.84903854448640   17.02529788100086    5.88814754215244
H         4.87494043141112   17.36442943322763    5.56859040890684
C         6.14012630771238   16.92437153984662    7.24073930541347
H         5.39183739144172   17.18952138306040    7.97297696174190
C         7.38084315337240   16.47082584253185    7.65598907864250
H         7.59821238627029   16.38027265564478    8.71009434209583
C         8.34252518751708   16.12011451965854    6.72428493304898
H         9.30635956977851   15.74792992980347    7.04161837419444
C         9.40719035578533   17.32093334887691    3.13111930700371
C         9.52171080223425   18.53746895883666    3.79673845755104
H         9.46500923296337   18.56817359089689    4.87574661935358
C         9.68411861634690   19.70550578230626    3.07397699576243
H         9.77493941288795   20.64893548795408    3.59181065800738
C         9.72238098161607   19.66854728804223    1.68895462982871
H         9.84810416850008   20.58347086618227    1.12940775785735
C         9.58135007047432   18.46186086650414    1.02265508985120
H         9.59067368278951   18.43138242593132   -0.05690642512692
C         9.42139075933257   17.29033861108543    1.74131834936013
H         9.27944881156761   16.34449399670460    1.23372423587332
O         8.78742507140903   11.72092509403345    2.46121942124833
C         9.64952150932672   11.16846404975528    1.66953323901136
C        10.62672853462107   11.90543273970862    0.95615707693012
C        11.50734466618376   11.28685635564004    0.07431760899321
H        12.22104649615941   11.88916706112572   -0.47350027646967
C        11.46156718783960    9.91882483544092   -0.09573801588252
H        12.14244938323035    9.43147128299642   -0.77672633218975
C        10.52852293070274    9.17157123183638    0.61817264039317
H        10.49636017875910    8.09921169964159    0.48876896424643
C         9.64126728630148    9.77095487690113    1.48075445740479
H         8.90985876821951    9.19279626418702    2.02448043058179
P        10.59844683645782   13.67655895563478    1.25347945142790
C        12.24987660234939   14.19119617679047    1.79317813132988
C        13.22546197236482   13.26213909650859    2.13423795877396
H        13.02076488499948   12.20621971499320    2.02960321096525
C        14.44733895451089   13.69404346831239    2.61907343356564
H        15.20557694012973   12.97061494772254    2.88037777254279
C        14.69474786076867   15.04658488836601    2.78218045855539
H        15.64552508127503   15.37828592127412    3.17178597076949
C        13.71991557446802   15.97461208441972    2.45209947505934
H        13.90715648158230   17.02969981316869    2.58602198926461
C        12.50083165649888   15.55157492670888    1.95821130957124
H        11.73591922587206   16.27136750759341    1.69994082330455
C        10.40449985871066   14.39371977298063   -0.40659288461443
C        11.48724018163065   14.79704748248720   -1.17861526091680
H        12.49034665151436   14.73319687779156   -0.78024734995553
C        11.27315240061643   15.28437204408185   -2.45607437326545
H        12.11405658460528   15.59808086660031   -3.05730621344274
C         9.98731118749614   15.36902913460683   -2.96427118951686
H         9.82727632140969   15.75026424787474   -3.96195338873873
C         8.90603323842066   14.96907608841869   -2.19379315924330
H         7.90370846005942   15.03970543240763   -2.58866424043381
C         9.11254586032985   14.48285567159794   -0.91672584125797
H         8.27840848908952   14.18192638790567   -0.29189424457784

