59
CSD_code = TEGVUX | q = 0 | S = 0 | Stoichiometry = C25H24Br2N4O3Ru | MND = 6
Ru        6.28004267969231   15.42145309162816   32.38509828118315
Br        7.09555292240350   19.57600218222157   34.81880762627603
Br        7.05801674886043   19.06837271726175   29.31743211964295
O         9.02352352972347   14.47160189044099   33.07514908606485
O         6.48312036976928   17.01088719880047   33.72284061528142
O         6.94114905098844   16.58996306190466   30.76902783359789
N         4.48291721004798   16.34477312619046   31.80928167888392
N         3.67873268158065   18.15939281777225   30.86966207379114
N         5.38503588281070   14.29430324815197   33.76444830096331
N         5.91403365686486   13.87701271273392   31.18945721545309
C         7.96293522028944   14.81369884810708   32.80673394970484
C         4.61248864143742   17.65235112663762   31.68537756830214
H         5.37386052669416   18.24422684929330   32.16401654547057
C         2.90751306162749   17.11698074502097   30.44667248511580
H         2.08497720016440   17.24757074689778   29.77427179698267
C         3.41784759806724   15.99712115827425   31.03517255361982
H         3.08192070823371   14.98164403697263   30.94407224357733
C         3.54480774454157   19.53509401399611   30.48192166320560
H         4.33469566184019   20.11651040895053   30.95353249964462
H         2.57191240180739   19.92434670216806   30.78809253265593
H         3.64159870276316   19.63142293365982   29.39917872628149
C         6.28813774922888   16.89319011950989   34.97365334762787
C         6.55902547010031   18.03357210700977   35.78667409290964
C         6.43750036580569   18.05688745972308   37.14589245614419
H         6.67450839616738   18.95310406030964   37.69881061391321
C         5.99460122826454   16.90607586911569   37.80526173569432
H         5.90235470138586   16.90769730311942   38.87963930110784
C         5.66106638425505   15.79709445112871   37.07423167579422
H         5.28970480246452   14.91808801651748   37.58328596435198
C         5.77919844029512   15.74677099329004   35.66973707352838
C         5.31042629087621   14.56410245890819   35.02166464831652
H         4.82798579988494   13.85668207622206   35.69565746649201
C         4.77892862008624   13.10488116682846   33.18125671969896
H         3.79188883942142   13.40510650034016   32.79070423209229
C         5.65034753855215   12.67950104137283   31.97147702970256
H         6.62141956894820   12.34396125310851   32.37194024374378
C         5.00270312505078   11.50607281851727   31.23198073439392
H         5.64318556196719   11.18347418811273   30.40964974333009
H         4.03786228897463   11.81463146389182   30.82138700038748
C         4.80829459889759   10.33205877250137   32.18775146722969
H         4.33501491993080    9.50466918913106   31.65664917147221
H         5.78312725046715    9.98993196745041   32.54071865587650
C         3.95245793071562   10.74203647239720   33.37837351269644
H         3.83676987481066    9.89861226311835   34.06068383069155
H         2.95716558495396   11.02787303444035   33.02996564638691
C         4.58183234146167   11.91502775862411   34.12575025711429
H         3.92160345044805   12.19041509242212   34.94942123908376
H         5.54894510854720   11.62170659282036   34.54000368563215
C         5.91512508781226   13.89379688921417   29.90382922249619
H         5.68131581279991   12.98527123461346   29.34908288880246
C         6.16809253691766   15.03203597094721   29.07583449584256
C         6.60534417224803   16.30484879487210   29.57749718601591
C         6.65650339919727   17.35056846891150   28.60826010277355
C         6.40949496626038   17.18304363746844   27.27539706918425
H         6.47598325983212   18.02320336188231   26.60081552708571
C         6.06403714592021   15.91409349617859   26.80482688128075
H         5.88154433441190   15.76348627691558   25.75286878403596
C         5.94026716843734   14.87903345740370   27.69491956126619
H         5.64245368397549   13.90346430455811   27.33519934010380

