113
CSD_code = TEGVOR | q = 0 | S = 0 | Stoichiometry = C56H48Br2N2O2P2Ru | MND = 6
Ru        6.14458096138098   18.01087537353400   18.11909764576462
Br        4.65702712190805   14.81378685561863   14.70301462253772
Br        1.44288644811984   19.17104329300835   17.02617066843891
P         6.76177606478379   19.36469937279425   16.31453861560441
P         5.27157184031886   16.37917181895023   19.51900600810531
O         5.87912157152935   16.52771875357345   16.64286937412823
O         4.17878788946065   18.75503583641717   17.91227610957015
N         8.01733991869155   17.45986239182946   18.39236092921146
N         6.49853424494865   19.28401739499483   19.57861000367234
C         6.73873345125083   15.61620648494404   16.40184235192829
C         6.38238851728545   14.61072554834473   15.46483817239425
C         7.18739729423386   13.56713623044544   15.10321049488731
H         6.84312499020020   12.83713909060119   14.38604381212286
C         8.45623593299941   13.46934326218256   15.67154740816475
H         9.10611024061565   12.65295360743169   15.39882721979219
C         8.86569025665097   14.42400846654176   16.56812715143483
H         9.85495658140064   14.35594238142821   17.00029425784019
C         8.05137923562341   15.49948554339744   16.95615608964769
C         8.61441478694003   16.44583913405283   17.87014200122965
H         9.65956622142291   16.25254343280321   18.10727143409326
C         8.71518370305127   18.42492470841117   19.22452142295108
H         8.94972597121131   19.29428067268347   18.58268503181359
C        10.01451599009764   17.94836084743849   19.87984049794433
H        10.74311326449449   17.67979340129972   19.11270402505192
H         9.81451107067890   17.06351684572308   20.48888956538180
C        10.60942013699417   19.05078840198919   20.75064881410119
H        10.86846892394407   19.90744086615540   20.12388261899906
H        11.52652650469847   18.68866378625523   21.21862823329841
C         9.61507315392636   19.48620056262781   21.81782685898190
H         9.38095038935770   18.64019333347069   22.46827315179213
H        10.05114610070664   20.27265628027053   22.43615919233758
C         8.33163185676060   19.99957619563716   21.17315575225705
H         7.63245005640799   20.28127795390978   21.96288131086559
H         8.55232663295990   20.88169504962669   20.56639172212323
C         5.78425070054365   20.30288877460862   19.91005498443491
H         6.10825833985193   20.95110961822352   20.72362931684231
C         4.54181350328161   20.69564476198295   19.31574775221203
C         3.80588011187897   19.86686829602683   18.40366662995330
C         2.50522815467114   20.34520873791316   18.07262727187502
C         1.99843926582092   21.54675340672978   18.48237545487262
H         1.00832526978595   21.84850896923512   18.17588534130975
C         2.76810166888601   22.36494539922447   19.31061469469731
H         2.38211415282449   23.31865897605964   19.63390783068130
C         3.99683904088972   21.92389018233436   19.73016067745784
H         4.57863016077101   22.53442437991038   20.40828540087473
C         7.77096723790696   20.89230499236370   16.33677767076014
C         8.57702795553965   21.25416580242113   15.26041855200985
H         8.62905602848527   20.61591901419042   14.38971502697049
C         9.30519152616134   22.42907496276347   15.29987606715541
H         9.92827271293106   22.70091601608948   14.46017333391479
C         9.23359926558411   23.25956850736231   16.40711242900221
H         9.80512600935393   24.17560696485586   16.43459377818865
C         8.41947254417502   22.91634990400970   17.47333123520040
H         8.34848852739524   23.56793563575091   18.33267646883543
C         7.69129901494585   21.74016195594873   17.43667834971698
H         7.04125171165204   21.47684151761993   18.25903809770766
C         7.74804440908465   18.34399091369735   15.15905969844681
C         9.09303133235375   18.14297642519851   15.46837306249614
H         9.53851969061974   18.68742309178366   16.29219901653151
C         9.86559598952189   17.27488695210688   14.72131489041816
H        10.90691401575653   17.12918577195366   14.97109870248871
C         9.30233915351862   16.58266330897815   13.66213214954863
H         9.89993036344143   15.88901965948946   13.08971408377255
C         7.97248046170486   16.78761274215000   13.33880815402422
H         7.52922169349707   16.25694389583630   12.50881143802588
C         7.19819334739730   17.66519566907245   14.07812133896839
H         6.16173110865994   17.81430585535036   13.81357533179871
C         5.33614391277641   19.88226646988677   15.31308209865671
C         5.14178791408495   21.18858775625739   14.87711078386953
H         5.85580867884745   21.96123948965202   15.12663920761227
C         4.02310022146062   21.50288634288026   14.12511044332179
H         3.87288241047284   22.52065834291824   13.79389140279459
C         3.10101631229352   20.52247146677171   13.79863135461042
H         2.23142143788475   20.77399606252547   13.20978785009483
C         3.28279903900492   19.22351525114865   14.24536138564343
H         2.55546103528869   18.46072563996367   14.01273822442510
C         4.38612427628641   18.90612342484227   15.01507082392574
H         4.50836520558227   17.90614004602695   15.40879975334911
C         6.22769002949347   14.83041119088950   19.49519175063748
C         7.49164462775657   14.79505551069787   20.08078791443103
H         7.84910859520133   15.65748472966407   20.62909108926645
C         8.28819259748025   13.67194075605612   19.96361934936823
H         9.26421057619115   13.65123404422260   20.42810166849666
C         7.84155768457022   12.57890178869466   19.23959426836261
H         8.46830477864939   11.70550824403349   19.13786853467019
C         6.59326033783515   12.61131026053269   18.64150115157029
H         6.24610975103326   11.76331866551743   18.06984207284626
C         5.78951650036941   13.72980037945353   18.76566353934440
H         4.81842191827786   13.75428049534269   18.29115863025497
C         5.06359119573968   16.78016385658553   21.28810441915599
C         5.59603673756679   16.07413629969354   22.35994527237039
H         6.16093362244623   15.16844047797992   22.18976594548408
C         5.38525615352183   16.51962745481639   23.65436119732188
H         5.79973730794928   15.96446063503037   24.48376591770620
C         4.64414611438136   17.66516839684286   23.89011530383424
H         4.48845353689810   18.00873292289749   24.90215553594741
C         4.09101427275356   18.36137447653021   22.82623044673210
H         3.49683744960532   19.24581408038860   23.00466218483970
C         4.29852658049819   17.91929252138626   21.53468580775327
H         3.85604661859164   18.44361973698017   20.69732643624094
C         3.05195512711899   16.02207725379057   17.87382769392034
H         3.62048909306729   16.57830541415231   17.14447308568641
C         1.78803582221573   15.54893064473495   17.56669586259627
H         1.37241235017772   15.73732750484105   16.58902472858436
C         1.06275403112484   14.84700339657776   18.51361696783554
H         0.07390276468296   14.48262359531219   18.27712453411848
C         1.60224744947659   14.61148009618357   19.76956598940257
H         1.03642642233581   14.06177362672958   20.50839492210112
C         2.86420788083744   15.07890238072639   20.08275415333918
H         3.28505305319969   14.89331788444293   21.06240038573693
C         3.59368040575069   15.79188101900726   19.13248264465614
C         7.70733445149873   18.91635979034726   20.28998002127669
H         7.45089192381812   18.05397593651768   20.93151044611414

