80
CSD_code = TEGVIL | q = 0 | S = 0 | Stoichiometry = C37H32Br4N4O2Ru | MND = 6
Ru       -0.80318582756888    0.64656117010924   11.55238696670388
Br        1.52913470139053    4.45557696320158   13.47108795819428
Br       -0.77821965142962    7.82311564794688    9.49692397959609
Br        2.58006832532234   -0.95883960278040   14.68080282380926
Br        1.14996776548836   -6.28763350244047   13.31109012005565
O         0.08227850475723    2.45067104878346   12.01882080438037
O         0.35960083457753   -0.35175917595517   12.95110895385740
N        -2.03123067500316    1.49504538745028   10.27951914735621
N        -1.90306853718402   -0.94358522593081   11.26884807112097
N        -2.10776374187090    1.15047279557218   13.31856012131294
N        -1.93115558726990    2.42281130756759   15.10692038522754
C        -0.19809357182808    3.55281482165817   11.45115040241472
C         0.44304403731529    4.72869051210797   11.93960855930087
C         0.29784559004101    5.97216468104869   11.39079894868986
H         0.82240798205294    6.82446596978514   11.79330018663448
C        -0.55919614145337    6.10523865540612   10.29710236462062
C        -1.26572836598174    5.03247320268760    9.81690176632668
H        -1.95136998658343    5.17062709307142    8.99347396142787
C        -1.12959538771677    3.74960654669712   10.37760863863383
C        -1.99347910031694    2.72306283472646    9.88315226948617
H        -2.68386285693893    3.06235497180763    9.11244871727742
C        -2.97496020595278    0.55301267733450    9.69302372173773
H        -2.49343681995190    0.11670513349971    8.80610296231127
C        -3.19617077213540   -0.58234469467931   10.71469924575769
H        -3.78095647646847   -0.16263360865385   11.55134826917571
C        -4.01472860247217   -1.70410501141278   10.07017792519636
H        -3.45721497098507   -2.11911221353655    9.22743181533883
H        -4.20638755447108   -2.50187704014667   10.78924720188263
C        -5.35778501513016   -1.15430724725540    9.59527914434177
H        -5.92617526628378   -1.95028062452784    9.11185928270160
H        -5.93176691462062   -0.81229301339628   10.45965268614298
C        -5.16340643995431    0.00466514419447    8.62669590892907
H        -6.13383775638470    0.40096244065731    8.32380774684648
H        -4.65185667941194   -0.35305820320944    7.73041920436314
C        -4.33254732827292    1.11679966698082    9.26193926915551
H        -4.20660734350736    1.91139674881132    8.52656358529401
H        -4.85129511077753    1.53136615310862   10.12970275142644
C        -1.61982518066526   -2.14687706017006   11.63393472676263
H        -2.31486022641100   -2.95902565893164   11.42418667857275
C        -0.43710743874220   -2.54812930882785   12.33148466649974
C         0.44629631780297   -1.61668931219103   12.97670694214236
C         1.49018496643803   -2.19847646748717   13.75815600142571
C         1.71883230062633   -3.54104060621838   13.86132476621713
H         2.53607594621617   -3.92170089042552   14.45422875884427
C         0.85692523081973   -4.40855288090551   13.18642163795152
C        -0.20098351679025   -3.92899767958725   12.46009158598944
H        -0.87022949158787   -4.62017550145631   11.96807794916807
C         0.49795321803614    0.19927598765530   10.19223868397106
C         1.91099604976599    0.16127988546011   10.41720860015683
C         2.49756887668546    0.75415434912852   11.55330781453977
H         1.87874379133686    1.29405564460825   12.25393511133086
C         3.85805273967034    0.67127951597470   11.77250843143006
H         4.28371209253654    1.13090115829327   12.65208968809336
C         4.67429534561458   -0.00743685603636   10.88148216482427
H         5.73633446842274   -0.08007262775065   11.06330517253114
C         4.12057066056830   -0.59177589982411    9.74909107281240
H         4.75380698655930   -1.11840586192570    9.04935544420786
C         2.76778731602131   -0.50248386770049    9.51173553474922
H         2.34708970043528   -0.96484014879156    8.62997452409424
C         0.03553523853626   -0.16785642538368    8.85579923422512
C        -0.35084541282740   -1.47296374059050    8.53938454254806
H        -0.24563905964348   -2.24832746674497    9.28556034927171
C        -0.84803815216533   -1.77328111823430    7.28444253570836
H        -1.13998597705637   -2.78783720424595    7.05317231450892
C        -0.96452966976997   -0.78343289834773    6.32170162932124
H        -1.35614312422963   -1.02086398218979    5.34385922893773
C        -0.55830284426541    0.50862259255496    6.61523275832147
H        -0.62618943964083    1.27996486131172    5.86193339188203
C        -0.05551798099877    0.81481163503863    7.86578465214001
H         0.26834235711136    1.82033303759906    8.09630311923250
C        -1.98619814190411    0.35173922650716   14.41749189343378
H        -2.00730168154393   -0.71972863492719   14.34386836747154
C        -1.87028318828883    1.12902443695379   15.53175879644214
H        -1.74031879332356    0.87018369185709   16.56207421607996
C        -2.07569579025152    2.38589019404537   13.77315341622774
H        -2.19217374051027    3.26991453564192   13.17322049954179
C        -1.74804305200763    3.59741316156417   15.91200850717165
H        -2.12556297478267    3.41796824324876   16.91749834812237
H        -2.28457341812735    4.43557531018932   15.46861192491527
H        -0.68662036068851    3.85175222097545   15.96982845114903

