88
CSD_code = TEGWOS | q = 0 | S = 0 | Stoichiometry = C39H36Br4N4O4Ru | MND = 6
Ru        6.80878626166201    1.05230375343346    6.41499042948195
Br        9.27991408348080   -2.23262073023392    8.97545100955133
Br       14.11685920629050   -0.48105080413635    6.52945236814491
Br        3.71119242468367   -1.38591923338387    9.32477548441181
Br       -0.56637779718341    1.56812737634446    7.03274933262319
O         8.14735615145347   -0.38308790475520    7.10266331989502
O         5.27975196202321    0.38557912613033    7.67967624488906
O         3.31125450434880   -4.78246613657267    6.08606988669441
O         5.95259561222889    2.07471784641405   -0.22194858444596
N         5.74060809610525    2.62200179211764    5.93629063489921
N         8.19353582784330    1.89098356930188    5.30454976499394
N         7.65735472290085    2.05135737406234    8.21349955408210
N         8.61057510131207    1.41348790048237   10.08874446222654
C         6.57388169821131    3.68169797380880    5.39232185649572
H         7.06929536375895    4.16505266940691    6.25081489830427
C         5.85761317506506    4.76080078509936    4.57547775366169
H         5.34161477855575    4.29013055983142    3.73543989888818
H         5.12344570486755    5.27997714157437    5.19382817946242
C         6.86263528774170    5.78732464299405    4.06006471943221
H         6.34057741712429    6.53663861980360    3.46333073329263
H         7.32581467808742    6.29885322567713    4.90713685568646
C         7.94017587304860    5.11508473511808    3.22124888990945
H         8.65555501421924    5.85942188701415    2.86773293986955
H         7.48064030816684    4.64716702120132    2.34801013274714
C         8.67182595599348    4.04956706240983    4.03321396421814
H         9.41483343123083    3.57815211035761    3.38826571188931
H         9.18766526172903    4.51253684288248    4.87839146565001
C         7.66796004752436    3.00715056411448    4.53252527022557
H         7.16755706740314    2.58207494703429    3.65270387657263
C         9.45102479772405    1.60121107809358    5.29030477653844
H        10.13569480216553    2.19314898522230    4.68591738898646
C        10.09883487580401    0.57261971322609    6.04510831499965
C        11.49713106895426    0.48236746843284    5.94337795628464
H        12.01354679550818    1.13785794955440    5.25702037638129
C        12.21741868032967   -0.40666967055118    6.70060960905609
C        11.58787516255467   -1.24494178311306    7.62041764577685
H        12.15688939282964   -1.92470632204256    8.23540995442768
C        10.22629230484635   -1.17098412486421    7.71888296819079
C         9.40527769165243   -0.30954100935799    6.93673089024066
C         4.46981935354225    2.76579823504557    6.09494413502433
H         3.97526930445539    3.67268721375020    5.75140553297165
C         3.59282337734116    1.81896941355295    6.71429981285959
C         2.21055554903646    2.04639616301958    6.60407057763394
H         1.86381480180382    2.87320080414841    6.00083020847099
C         1.30015591046446    1.24047797430443    7.23798168848943
C         1.71777441689607    0.19191911204035    8.05868276586653
H         1.00156923665755   -0.42118045254745    8.58364636369361
C         3.06070351438412   -0.02525002044374    8.18434345576618
C         4.06748332433775    0.71988201568751    7.50417097261309
C         6.06305355169148   -0.04171608471911    4.99252648866571
C         5.44241324794920   -1.29815392585130    5.25100145649721
C         4.49483909604916   -1.85146544411978    4.35743942729601
H         4.28235271297731   -1.33900106373156    3.43055580750025
C         3.80896157095381   -2.99548733587115    4.66656017210465
H         3.06194945789137   -3.39647200854589    3.99894523796609
C         4.05690827549252   -3.67809849430396    5.86743867019436
C         5.03703875826369   -3.18836619327885    6.73028091940674
H         5.27545973738589   -3.70358194946531    7.64703126703257
C         5.70234402939527   -2.02000712031780    6.43341031954743
H         6.46004304261638   -1.66486467231965    7.11486721893649
C         3.47369935882512   -5.47917657259739    7.30220947057018
H         2.74240800570617   -6.28519589883619    7.27814088378328
H         3.27795486033917   -4.83219760706333    8.16203174973796
H         4.47842103765952   -5.90328495665479    7.38760162679894
C         6.00495681320533    0.45213757597943    3.61729253456243
C         7.06226070721460    0.19243243292552    2.74640163714854
H         7.88679382264125   -0.41500773382247    3.09246042330425
C         7.08252722490060    0.70694178094334    1.46140531871928
H         7.92166386113940    0.48120474098313    0.82233322046144
C         6.02982643145391    1.49638080112254    1.01160675780967
C         4.95186734726901    1.73762721539999    1.86558921980270
H         4.13011734912730    2.33114198753716    1.49576241164377
C         4.93570746313459    1.21910325164523    3.14225334832938
H         4.08933213258146    1.40257785753702    3.78854338129271
C         6.98015973924298    1.81973357172334   -1.14746252107500
H         6.69927670679109    2.35331489481488   -2.05400762122014
H         7.06616207282527    0.75122641323887   -1.36916583623135
H         7.94570405408363    2.19574538177543   -0.79232298520046
C         7.57446959450575    1.24795282403650    9.25471429008276
H         6.78369908599369    0.53907527215054    9.42148359896769
C         8.80417848509716    2.76560145822862    8.38500194783770
H         9.12714832436686    3.50615178884816    7.67853797183569
C         9.40532097885061    2.38175140486789    9.54768718449658
H        10.31340526165782    2.70483575998353   10.01314933442710
C         8.85616153488297    0.68833436161342   11.30302094387078
H         8.80063891147848    1.35619432780302   12.16469937180688
H         9.84589877432756    0.23118404946896   11.27360040640881
H         8.11242499881257   -0.09927955176629   11.40614849689198

