41
CSD_code = TEGWUZ | q = 0 | S = 0 | Stoichiometry = C9H21B10Co | MND = 11
Co        2.51527543824686    1.22992093215194    2.08331541067367
B         2.83393234684432    1.80837233682923    4.07859205754979
H         2.13779669174055    1.45656778013561    4.96462237802389
B         4.58579305118003    0.95956234203239    2.05762775967904
H         5.00193121953954   -0.05929832539296    1.63168451325850
B         5.29860147313618    1.81214694391740    3.54461037878945
H         6.16559971548922    1.31369838879497    4.16802055240733
B         3.95659200079871    2.29069280733014    1.05694378579353
H         3.86204026148739    2.12884585867921   -0.10786678769623
B         5.55895760115821    2.40077895371141    1.83477738523539
H         6.57614979650879    2.26310753225032    1.25885729153659
B         4.18890502493593    3.16410348309722    4.35686646400208
H         4.25738670722170    3.34581160776525    5.51521122334234
B         2.84563814910367    3.38047120498498    1.94294692370489
H         1.95431534538946    3.91681938410609    1.38641478107792
B         5.41480162080967    3.53513040105507    3.19188482618403
H         6.37532831525802    4.11951920903962    3.54326972415823
B         3.84838713476124    4.37613266875202    3.08780908132890
H         3.62971004436813    5.51034311553732    3.30786538277230
B         4.58638648713452    3.84029010789499    1.61522114930349
H         4.88568487563249    4.65686731766001    0.82217652413856
C         3.91190036450074    0.83289515327194    3.52483335230293
C         4.00901854832576   -0.50944793602937    4.23685867341639
H         4.35961638478979   -0.35944680215213    5.25820160563212
H         4.70942875509218   -1.18030534758103    3.74365167138496
H         3.04176254111628   -1.00469870149140    4.29914013796131
C         2.67830150505750    3.32419034372559    3.61329415486134
C         1.48314403086702    4.00305738400363    4.27420058776047
H         1.61914266524426    4.06154395624638    5.35353945543608
H         0.56487304383024    3.44858090488846    4.08646954181826
H         1.34262911091363    5.01399042832482    3.89701482297813
C         1.86051959391065   -0.06419225216506    0.56348530887348
H         2.42326214836465   -0.47530213026007   -0.25711963418564
C         1.59243562174393   -0.71511237821271    1.78918936984679
H         1.93683824738804   -1.69762277756793    2.06533598738809
C         0.70656970286092    0.08897460337182    2.52722772630007
H         0.25711302075489   -0.16833141450541    3.47225295773154
C         0.42423632045487    1.24255438514160    1.76665119718704
H        -0.29748332492091    2.00254809083497    2.01755276534104
C         1.12880384038001    1.14590470513793    0.54469828162759
H         1.02607457857914    1.80853573469059   -0.29732876892500

