41
CSD_code = TEGWOT | q = 0 | S = 0 | Stoichiometry = C9H21B10Co | MND = 11
Co        1.65066240601365    2.34610889658731    6.07921318493161
C         2.96307958024193    3.81900861591156    6.73319693744757
C         1.74366996367681    4.39651895085255    6.21664512370095
B         3.02669172566658    2.56774417457783    7.76439500516816
H         4.07667887591324    2.02955469931878    7.71197346648743
B         2.78913477576409    4.25016751791302    8.43770962076929
H         3.70907805636537    4.91616780083781    8.74951954629682
B         0.25445073615238    3.97073175302126    6.65477319393484
H        -0.54701008842971    4.35449435680826    5.87677990627531
B         1.51574401812054    1.67287902109033    8.13078394714165
H         1.60891390833831    0.50307730064298    8.24237740434346
B         2.28565643351129    2.76827262309561    9.31115535456569
H         2.85676726881379    2.35068976050883   10.25212150149562
B         1.18733052005509    5.05950997745990    7.78962395351731
H         1.13420045141883    6.23078550461091    7.68644568396961
B         0.04444043542910    2.41787732894094    7.53891035349194
H        -0.88762241477268    1.76526800936252    7.23123469633219
B         1.29181411657360    4.25525973131607    9.32910229739204
H         1.23818745790787    4.92077044038782   10.29990996556115
B        -0.16324088404583    4.00331749578869    8.32813086337958
H        -1.23174400628685    4.40952020332404    8.60981483999384
B         0.52491692022462    2.64307671297532    9.22347635725057
H        -0.08468703308372    2.12805720904506   10.08858357344963
C         4.26499819767684    4.21915395542566    6.06819148448107
H         4.29172841484331    3.94227299451661    5.01507280809174
H         5.11315755122902    3.75371756766337    6.56379102686764
H         4.39975993629663    5.30010729242020    6.12533475795657
C         1.86822080349254    5.36511212704931    5.05774685574367
H         2.45742937777036    6.23291169713819    5.35837905312151
H         0.89245200520291    5.72351006752355    4.73940567959479
H         2.36535650779482    4.91698795140311    4.19846878517223
C         2.43217540831441    0.55675695707607    5.29524037485151
H         3.11333662406349   -0.13774488037304    5.75687417874818
C         1.01865950488180    0.52409364303550    5.39511634018102
H         0.44124783000896   -0.21802242338097    5.91810263263313
C         0.50252100851491    1.51335531365991    4.52229157534737
H        -0.53749728831193    1.67438464696437    4.29478365789871
C         1.59249242760721    2.13206161852806    3.87575767801025
H         1.51940877264004    2.86882707816125    3.09239277039503
C         2.77750120706519    1.54332350355737    4.34852305907219
H         3.77363848734120    1.74843280525408    3.99145050493711

