71
CSD_code = TEGXEJ | q = 0 | S = 0 | Stoichiometry = C28H37MoN3Si2 | MND = 5
Mo        0.98340912331306    7.09689289107490    2.91479529095498
Si        2.36090469373412    4.09673756093064    3.88922024866705
Si        3.00770196798959    8.47941188698820    0.46240278283642
N        -0.50308456823039    6.67458119272544    2.12707652671749
N         2.27165874809973    5.81407638107483    3.64476945656560
N         2.56864979955390    7.82992554959890    2.01378506628417
C        -1.67698579289645    6.29648056550171    1.59151407367812
C        -1.77205219796327    5.81543846848639    0.27517108813319
H        -0.86808768717608    5.74642415561448   -0.31496104569387
C        -2.99073204487691    5.43639869242672   -0.24799907956588
H        -3.04449107406116    5.06813931694258   -1.26292243216670
C        -4.14422978285922    5.52479040786621    0.51527257878825
H        -5.09566260930252    5.22864976616370    0.09953155287872
C        -4.06633876824920    5.99266800117470    1.81884998050100
H        -4.96175808096751    6.05841469802129    2.42079629134856
C        -2.85513480388714    6.37115569079828    2.35635844607454
H        -2.77577907399773    6.72796524091268    3.37547281262923
C         3.16548322312576    6.76365169290078    4.04677185667533
C         3.32886067451395    7.87201311972178    3.14852241861736
C         4.26000234814714    8.86560573384534    3.46842918675826
H         4.38907800009428    9.69411863753387    2.78736749305296
C         5.00367848321053    8.78673615233349    4.62719511160700
H         5.71788108502709    9.56294272784942    4.85874237362729
C         4.84492772647073    7.71182102723257    5.49618946798007
H         5.43602939436705    7.65897062819695    6.39828332714414
C         3.94154472217332    6.71046087532807    5.20879861730181
H         3.82211166733559    5.86604407118385    5.87204249600566
C         2.08671402908059    3.51146843743586    5.69414739048463
H         2.97382412480281    3.63609971232682    6.30846739126709
H         1.82851139255242    2.45732038263018    5.71236045111736
H         1.27427374839570    4.05266325695421    6.17074893404748
C         4.06644864629421    3.48719171858061    3.27365945528318
H         4.21696816462615    3.73336597906106    2.22631256655853
H         4.15851289317234    2.41129585555986    3.37781585145393
H         4.87510960747070    3.94509251277384    3.83634352984280
C         0.92256222340248    3.49524217557600    2.79079764592497
H        -0.02243449766819    3.91092603785074    3.13827425215646
H         0.83271442605318    2.41428041990620    2.79423582245106
H         1.05901158061898    3.81498376445287    1.75908655515796
C         3.00527558847327   10.39519487632556    0.37394905357207
H         2.23224786305252   10.82275509208852    1.00665789325919
H         2.81762183707874   10.72858800043358   -0.64192245621967
H         3.95642613047933   10.82101768723045    0.68092691408103
C         4.73541590804327    7.81537872121032   -0.01871296120974
H         5.49047515470125    8.12134961181315    0.69981585281364
H         5.03738959300831    8.18333820966547   -0.99366200074389
H         4.74302969077040    6.72979443778134   -0.05735492995323
C         1.63218213258870    7.78165849730297   -0.65713302986063
H         1.71205588729624    6.70113215703728   -0.74616109411737
H         1.67836760212713    8.19810391421051   -1.65758073771395
H         0.65117699029205    8.00919861417299   -0.24120372891885
C         0.16195154248698    7.13002639091314    4.86958882407248
H         0.26501395084593    6.32636203672335    5.60659644505001
C        -0.57725728069942    8.18220426979966    5.23710816849467
C        -0.74623530903463    9.26814921258891    4.20505331024636
H        -0.83266838687499   10.25084567354789    4.68439657642806
H        -1.66735133579828    9.08827295874147    3.63757721270278
C         0.45008818819698    9.18616410786771    3.25806465551816
H         1.28822076117184    9.72063336146151    3.73814861209685
H         0.21819244699897    9.73147715998559    2.33168358592594
C        -1.25467980398134    8.32047411088528    6.53462544133719
C        -2.50484551875409    8.93232547242700    6.62805086337677
H        -2.98366510109680    9.30475264169587    5.73472429005982
C        -3.14728682877266    9.04682429161476    7.84654763267104
H        -4.11902848240635    9.51693707312716    7.89839142388242
C        -2.55103695440921    8.56344895737318    8.99908630750550
H        -3.05198017300264    8.65723130848996    9.95142368990537
C        -1.30563736144681    7.96208710049402    8.92264616495035
H        -0.83063026332767    7.58951766289530    9.81919653103244
C        -0.66534838283880    7.84048871967252    7.70434812989398
H         0.31421840329589    7.38692228490274    7.65439752669201

