41
CSD_code = TEGXIO | q = 0 | S = 0 | Stoichiometry = C9H21B10Co | MND = 11
Co        3.87500047143127   -0.31497955155094    4.71202928998538
C         3.51467425822435    1.35908973224307    5.85130156418839
B         4.66702195269347    1.74502986807389    4.89471710637500
H         4.48268137620308    2.65104524080325    4.16195513294287
B         3.51346307603743    0.16496526533300    6.86428747576175
H         2.53529032288475   -0.00690231136116    7.50253745656959
B         4.77670611074007    1.58135509372561    7.05794733979923
H         4.48654609892701    2.43159320503426    7.81803302736844
B         5.87282088305268    0.51598453527613    4.52069813802666
H         6.27422554572758    0.63499831773353    3.41827511237617
B         4.55070509729320   -1.23938025501607    6.48942236194580
H         4.03556891106238   -2.23896714548388    6.84636964382554
C         4.93365184359406   -0.08165233882673    7.70876779726279
B         6.19180448354739    1.68583439910441    5.82836795496903
H         6.81958058519959    2.67152679069063    5.67792230272950
B         5.76858405351073   -1.09626816802911    5.26066308298761
H         6.11143662770185   -2.04256957244631    4.64644123743889
B         6.33215986292073    0.79805408290026    7.31012009132241
H         6.97864813137691    1.16944423064985    8.22164320999829
B         6.98255203359901    0.09516341796202    5.80482278594206
H         8.13127885087374   -0.02416339857538    5.58226746903821
B         6.19640544405835   -0.94611320350338    6.97996591688466
H         6.74907081179234   -1.74473727018843    7.64280090557883
C         2.24974293690404    2.20483927052980    5.82869984057619
H         2.36237950089211    3.03760077415718    6.52345789663125
H         1.36696262898919    1.64428251869247    6.13442486680926
H         2.06888675748994    2.62995072284526    4.84293034781129
C         3.86399222068625   -1.16073275849504    2.81878985919776
H         4.70257120185472   -1.36751807812100    2.17693072570392
C         3.04277199854392   -0.01764877364513    2.76983603103411
H         3.15397090596162    0.81513706485810    2.09675751624991
C         1.96639792358952   -0.21965649357954    3.66213820187130
H         1.12676921000757    0.44262928473524    3.79002159467603
C         2.10909217623939   -1.48337006246109    4.25713931063327
H         1.40362979265270   -1.95641871149326    4.91867577276440
C         3.29616066342124   -2.06230961902041    3.75667396678226
H         3.62928671242854   -3.06995268233811    3.93836671535376
C         4.68383188180774   -0.37489284854939    9.17926442108704
H         4.06220238225702   -1.26158994618592    9.29938426031176
H         4.17661437023060    0.45674588949479    9.66783010334504
H         5.61955990359249   -0.54954651597180    9.70782216584466

