73
CSD_code = TEGYUB | q = 0 | S = 0 | Stoichiometry = C34H30N4P2PdS2 | MND = 4
Pd       16.06494484285525    9.52746851623970    7.02388001296635
P        15.36123331192448    7.89329206591885    5.64934781623000
S        16.92050569819736   11.13416073133492    8.53669048580239
N        14.65350372214227   10.03700037047577    9.23948215122681
N        15.69861102927216   11.47615650374986   10.82068445303086
C        16.11458133266841    6.31554394139259    6.26402253070327
H        15.61053906218839    5.44944019532599    5.82334429877068
H        17.16873355098335    6.30783381999000    5.96520781657856
C        15.51857133439808    7.85602842355495    3.84851850175215
C        16.57849357789326    7.23521581948386    3.19580254443071
H        17.30495759533186    6.66516268491131    3.75705462507651
C        16.70917821800838    7.35829043813928    1.82443607681457
H        17.53138892695201    6.87246666331894    1.31913573413387
C        15.80054393749232    8.11381888921152    1.10146768230843
H        15.91615907883686    8.21745094469473    0.03281822233077
C        14.75157188710161    8.74583722906339    1.74997010196731
H        14.05126338062237    9.34745897598802    1.19078470980528
C        14.60943118580883    8.62045195004572    3.11823784192488
H        13.80593705004684    9.12765228138436    3.63614460890169
C        13.58913045514881    7.62207092895258    5.92346928099035
C        12.89235165477340    6.58860300540749    5.30405064738941
H        13.40606393798715    5.92596176699540    4.61989772320145
C        11.54318381663080    6.42659354489100    5.55769140147337
H        10.99738066892666    5.62628428475722    5.07943941908038
C        10.88836877241383    7.29418137134317    6.41935247220997
H         9.83288329561958    7.16455279053908    6.60902546085715
C        11.57944032858329    8.32989604495443    7.02727633773290
H        11.05984193330041    9.01175060815672    7.68458831148657
C        12.93167313390151    8.49835610623811    6.78203340523063
H        13.49378372864632    9.32012099205317    7.23733966866209
C        15.64655567719028   10.86788344856429    9.63333112440836
C        13.67693387910875    9.82412366034075   10.10415408885964
H        12.89035567701763    9.15356839346282    9.77472329404873
C        13.64999765087601   10.40779092333201   11.36008193098479
H        12.84998201453925   10.22509038944197   12.05744321331624
C        14.71783344426312   11.24684122472102   11.66234582687011
H        14.79139754942260   11.75408265493456   12.61682537422503
P        16.77001758047128    7.89362799977831    8.40075915676654
S        15.21090724487238   11.13573416413269    5.51385621420503
N        17.47738555683354   10.03690492449599    4.81125343428694
N        16.43283127968854   11.47611006623000    3.22975829747551
C        16.01719352377173    6.31561289123468    7.78596006375720
H        16.52163701837227    5.44969276452389    8.22653507012711
H        14.96303621763825    6.30725690203635    8.08474820388830
C        16.61235980987404    7.85599942080047   10.20156547412194
C        15.55221991485143    7.23527170722044   10.85404906193209
H        14.82578040284936    6.66537702422738   10.29259515200632
C        15.42128457414328    7.35824727025413   12.22540778616907
H        14.59896088617686    6.87243273867663   12.73054248355514
C        16.32990078014588    8.11357023537068   12.94860774889260
H        16.21417259480685    8.21703832967775   14.01726464493628
C        17.37904598636643    8.74554469046403   12.30034424750936
H        18.07936464485338    9.34697265806925   12.85972302281949
C        17.52142770005563    8.62026644714075   10.93209214854465
H        18.32508495490657    9.12741037597202   10.41438605184993
C        18.54217065167398    7.62241618050464    8.12699691330829
C        19.23883944679894    6.58893284525838    8.74653463952924
H        18.72503996503364    5.92639846902314    9.43072827872024
C        20.58802947804803    6.42688021676842    8.49305815436774
H        21.13378188905413    5.62662072634354    8.97144416811838
C        21.24294738317761    7.29439918095022    7.63139579328316
H        22.29843145859685    7.16471009920501    7.44177937182984
C        20.55198810825512    8.33012147872111    7.02337938874722
H        21.07165299890852    9.01189280949470    6.36603788441227
C        19.19976567994995    8.49866341026794    7.26850213606364
H        18.63776514503209    9.32045680871877    6.81312062723712
C        16.48450674807820   10.86789560724517    4.41714849007794
C        18.45398612719127    9.82362574521131    3.94666378030181
H        19.24050606433050    9.15311022931572    4.27631684699857
C        18.48120134057523   10.40714055510469    2.69065319464825
H        19.28124108216003   10.22420043993031    1.99336810030204
C        17.41360636851624   11.24642153231827    2.38821929098725
H        17.34032305285495   11.75366047197442    1.43370548242105

