115
CSD_code = TEGZAH | q = 1 | S = 0 | Stoichiometry = C45H65N2OsP2(1+) | MND = 6
Os        5.11313249471325    4.44841992599396    3.25992035590821
P         6.71245733992762    6.14498596418112    4.21262133230207
P         3.54425543925282    2.74690258101228    2.34785623267269
N         3.62922706551300    4.83571701453992    4.73627931591564
N         4.28569614827918    5.96171589602921    2.28854310887964
C         6.12282619773777    3.09805413495552    4.22273490162878
C         6.89108162160882    2.34663971272091    4.84983966643518
C         7.77129286703559    1.59283074912484    5.56321864171804
C         8.19635704581041    0.28436305655737    5.10099153163106
C         8.25291083278304   -0.00124236633679    3.73277933346010
H         7.99973087547886    0.77272122892936    3.02509761615165
C         8.66253276391780   -1.24227972032947    3.29133120586825
H         8.71678611033998   -1.44353403514437    2.23177832799311
C         9.00953323287212   -2.22739694229648    4.20378563204312
H         9.32855217454782   -3.19856246845716    3.85763053255946
C         8.94449235013675   -1.96180271147523    5.56332286557676
H         9.20540311855129   -2.72981665598266    6.27586014645461
C         8.54708715755201   -0.71837829208089    6.01236819098555
H         8.47762345273289   -0.52415131581810    7.07293151042873
C         8.31390375418698    2.15154485147365    6.79408090275197
C         9.63763621331834    1.90889074699493    7.17237971083919
H        10.26395199052053    1.28561782266059    6.55094850185029
C        10.15536354552869    2.49123082999628    8.31263320560901
H        11.18151995827459    2.30359799255768    8.59060581098498
C         9.36469994129832    3.31456391206679    9.09931453022498
H         9.77165245629987    3.76219863648137    9.99302433997736
C         8.04908756724958    3.55966729860795    8.73567985179152
H         7.42848264864969    4.19239188591518    9.35338403979937
C         7.52890732933372    2.99173399450163    7.59036871617299
H         6.50005322462531    3.16442751972975    7.30801793833802
C         6.21363655787280    4.06500572264181    1.53066481198807
H         5.80773045873745    4.57171947219060    0.64551653394336
C         7.21773400963692    3.21914818294341    1.28418403026100
H         7.66765906382647    2.67716168517619    2.10754798793622
C         7.82141915021681    2.91450634321192   -0.01097712497044
C         7.29640297109809    3.35223536212020   -1.22788119143892
H         6.40095134931861    3.95702422421617   -1.24419626877612
C         7.90160332790700    3.01752840349941   -2.42341583915050
H         7.47766711433878    3.36599395335229   -3.35420130092139
C         9.04517756582029    2.23608271170941   -2.43569539375796
H         9.51542005989936    1.97577447734789   -3.37172591133625
C         9.57800288556222    1.78996427321688   -1.23753210337737
H        10.46890767921244    1.17909869450664   -1.23693674744821
C         8.97223298144974    2.12329196869570   -0.04224635274498
H         9.39615435433594    1.77264771663361    0.88890810147794
C         2.65163717192972    4.94194718596403    5.33562830487906
C         1.45681335538157    5.08437524152359    6.10660725974580
H         1.57699099624099    5.89065966697341    6.83090644355145
H         1.25336634158462    4.15531752813816    6.63962170307748
H         0.61494719109521    5.31422111104665    5.45280575390142
C         4.00038566360807    6.92903715126052    1.72811496878257
C         3.62611130049632    8.11325567672069    1.01700390939850
H         2.74745067467809    7.91849666553990    0.40043485652457
H         4.44886716958003    8.42266943209789    0.37145721969453
H         3.39940847790683    8.91859994423154    1.71681049198699
C         8.27154808488692    5.43655644223875    4.97206533143190
H         7.86577662843475    4.60726596624688    5.56536909261364
C         9.16560586826231    4.83551017795249    3.89020232213345
H         9.80079008529049    5.59644441633419    3.44458447869455
H         8.56319775298004    4.37668424890616    3.11040967181200
H         9.81198799239140    4.07523578096715    4.32461412754148
C         9.10156448329087    6.31608128198194    5.90427140071847
H         9.89641254228126    5.70056828095690    6.32407610381709
H         8.52850787406201    6.71464724022588    6.73561363018953
H         9.56831881694815    7.14176594823913    5.37730283593498
C         6.02098883922852    7.10927725905875    5.66340932296246
H         6.79896318133006    7.80759691956132    5.98779832078687
C         5.71185525682757    6.16238064392542    6.82151977689216
H         5.15581793077610    6.68750386231904    7.59715268988323
H         6.62418641193459    5.77499132000472    7.26565984517278
H         5.11883159375748    5.31591451331791    6.48328253726911
C         4.79199511037440    7.92426282693001    5.26517455251303
H         4.04289680801172    7.29832824761918    4.78451579359286
H         5.05794095962182    8.73139564029310    4.58611213204703
H         4.34193534891886    8.37288354231404    6.14988327170962
C         7.16482963031473    7.54447284655135    3.03911000392288
H         6.18097246765001    7.97450970010079    2.80475034249878
C         7.76157226099244    7.02256933265450    1.73378955078106
H         7.68525004629639    7.78373588520911    0.95856391763469
H         7.24607568481098    6.12531798871671    1.39821718048886
H         8.81238673243652    6.77902324164369    1.85440770987777
C         8.04460117836022    8.66091895621013    3.59490719543358
H         9.06843589100518    8.32146242198041    3.71862328271729
H         7.68493095444159    9.05110480075697    4.54275839334226
H         8.05917556523572    9.48439546350725    2.88158611886347
C         2.48154466404504    1.94179642545466    3.67935695828683
H         1.86097300285709    2.78012268675541    4.02334990234492
C         3.30705360361596    1.46915178845673    4.87498283216499
H         2.65123239349845    1.28153014339578    5.72440621786919
H         4.04614040324056    2.21620648632880    5.16295289475029
H         3.83358990617772    0.54699602916344    4.65136907785196
C         1.54634894709556    0.82595856227505    3.22238886872712
H         2.10380838425009   -0.07343023303234    2.97859887027071
H         0.94277611869925    1.11470827749985    2.36601465176488
H         0.86681508490339    0.57755615796687    4.03718613760039
C         4.31940255542458    1.39707311496681    1.30436816650964
H         5.04652887399314    1.95594570269073    0.70214045457367
C         5.11128781482922    0.44069601697184    2.19240172240257
H         4.46049875579628   -0.30074549530564    2.64876490532271
H         5.62744608797135    0.99351729579976    2.97386483125202
H         5.84999260268755   -0.08970717389174    1.59547126542042
C         3.42088217720876    0.60996161720138    0.35172057901381
H         4.04603844712151   -0.10872790009036   -0.17637836851576
H         2.94822774077252    1.23801952722539   -0.39726085942513
H         2.65125165192977    0.05252659759871    0.87525997658934
C         2.21433249263199    3.38779274550153    1.19114330417888
H         1.62803640090068    2.51801540923660    0.87731200661282
C         1.27626539297856    4.37878249483777    1.87829950212434
H         1.83814223113038    5.15685009687253    2.39423492509462
H         0.62716044748498    3.88205764765900    2.59594896516254
H         0.63956856380939    4.85781096032022    1.13566037730388
C         2.83810470596500    4.02023255713544   -0.05186090608382
H         2.06158714696749    4.24746427994984   -0.78151188755726
H         3.55994146045545    3.35585814862818   -0.51958726274535
H         3.34705517051726    4.94576079361132    0.20093881792926

