41
CSD_code = TEHBUF | q = 0 | S = 0 | Stoichiometry = C16H20Cl2N2Zn | MND = 4
Zn        6.21879489989691    1.48281190184079   12.77274989467304
Cl        7.29263249449576    3.41260362139408   12.95599694336645
Cl        4.96470017404762    0.51659783895728   14.30485756051171
N         5.19087317439512    1.63218485490949   10.93074333685167
N         7.30954249746099   -0.03795944293947   11.60294732785865
H         7.55740244986481   -0.83884181139723   12.18269591610901
C         4.09069040497630    3.67713376020185   11.56321706778483
H         3.32186829735064    4.35384790132982   11.20194497709602
H         4.97837852577515    4.25389844561396   11.82775728021874
H         3.74843976499315    3.17931942676553   12.47041004750488
C         4.45331003224953    2.66821526696643   10.53502965199542
C         4.05507162336987    2.78813643767952    9.20554600322014
H         3.46102623671742    3.63414182086558    8.89860321706396
C         4.43243309247548    1.81982797166001    8.29409092709865
H         4.14078030053123    1.89719900428921    7.25749507153476
C         5.18988529337006    0.74444402247687    8.73128666677814
H         5.49984653800823   -0.03458903009113    8.05252102554817
C         5.54998742673430    0.68750241527662   10.06885663639030
C         6.31279961804804   -0.48844988659914   10.62544030412398
H         6.80671660099915   -1.00891504417812    9.79025813505187
C         5.32670203052247   -1.44690965621542   11.29471690165902
H         5.83778847211921   -2.35693828724151   11.60150225134392
H         4.53346403392155   -1.71456235918826   10.60138451107402
H         4.88401181046573   -0.97998244601111   12.17194416821212
C         8.54623102382349    0.47022365254705   10.97813289802568
H         8.28326424721078    1.40048460678160   10.46171771621264
C         9.13022929129882   -0.50272036518420    9.97602149154440
C         9.37422645529369   -0.09725960693891    8.67015109918935
H         9.13316716415955    0.91456140346293    8.37597801867083
C         9.92353956693814   -0.97253707413272    7.74959937585806
H        10.11047554625196   -0.64126510861793    6.73893663443800
C        10.22990156590292   -2.26959643958289    8.12331213416006
H        10.65659530169065   -2.95452430883820    7.40620121670766
C         9.98836060105356   -2.68475954377138    9.42198945877901
H        10.22675603472412   -3.69494677012514    9.72014278127434
C         9.44416878522961   -1.80713392099704   10.34223060858666
H         9.26688657869627   -2.14591849202096   11.35360894726671
C         9.57391777443763    0.78402619730085   12.06133126606569
H         9.19029019569603    1.54682581661720   12.73395437598260
H        10.48582092453448    1.15797629024191   11.60331297093924
H         9.81662315027100   -0.10795306310594   12.63528318322891

