61
CSD_code = TEHRIH | q = 0 | S = 0 | Stoichiometry = C22H28N6NiS4 | MND = 4
Ni       -0.02289105427218   -0.80671438460554   10.78678236029915
S        -1.24997783135608   -2.67399436271578   10.88194354729938
S        -3.39282394273821   -3.40146130466235    9.03662043321821
N        -1.65682600295672   -1.46261165159674    8.55398991798065
N        -0.59509377401888   -0.70816352419312    8.94316129863167
N        -0.68417355882726    0.61998006223109    2.46821232885013
C        -2.03390634849675   -2.37064564312524    9.38895005075321
C         0.01751136113055   -0.01259691673247    8.02417176226177
C        -0.22239638067095    0.09014744058121    6.61505787947694
C         0.62645686854552    0.93650964420087    5.87991874483934
C         0.48125063201363    1.11151616968735    4.52813619705889
C        -0.53378798915547    0.44834146597296    3.81225112435436
C        -1.38252478564784   -0.39962268465999    4.54652727662587
C        -1.22902846847083   -0.57254772956833    5.89981166926365
C         0.17164356063119    1.52806087509914    1.74512298668615
C        -1.72204999021261   -0.07904005600595    1.75172271759295
C        -3.93560375492624   -2.78717290152716    7.41532881479442
H         0.84490085338518    0.59567767026537    8.37129772036097
H         1.41566900633753    1.46407714070609    6.39593751309679
H         1.16460757684923    1.77075223585277    4.01896211152644
H        -2.17914174722218   -0.93126544358769    4.05214276871942
H        -1.89497268077942   -1.22710724779284    6.43298508679722
H         1.21651858275268    1.20538313195843    1.78772570555250
H        -0.13026383174166    1.56004805148103    0.70131292666472
H         0.10245004803078    2.54210722022188    2.14988087303650
H        -1.65449556920837    0.15473125787785    0.69240432829353
H        -1.61720510578664   -1.16150477046441    1.86677245616602
H        -2.71601784034517    0.21513893156524    2.10348747420762
H        -4.03282915682210   -1.70769155644283    7.46230400783344
H        -4.89702274176591   -3.25137555025700    7.22099627488737
H        -3.21502534497721   -3.08309242669656    6.65925953110868
S         1.20824418606722    1.05757835106118   10.68965441888857
C         1.99039623756794    0.75564059868659   12.18390583077021
S         3.34959320215074    1.78610546273849   12.53627630484662
C         3.89208138806340    1.17226803031859   14.15786538755051
H         3.98974506750130    0.09282894068019   14.11100640852090
H         4.85327937702034    1.63680234299599   14.35257135362146
H         3.17114034206319    1.46793772394358   14.91368595207682
N         1.61363761508379   -0.15286064065072   13.01857654326399
N         0.55239856610577   -0.90799392228871   12.62927978485893
C        -0.05997665186698   -1.60376650991676   13.54823208977283
C         0.17975277382706   -1.70650129768604   14.95733900208146
C        -0.66924234545451   -2.55290976978451   15.69224287464722
C        -0.52413922183336   -2.72818400011599   17.04399187646773
C         0.49086416045630   -2.06516606651559   17.76005577056915
N         0.64115376708860   -2.23707662501304   19.10407060229325
C        -0.21471908639718   -3.14531407395931   19.82690329395713
H        -1.25960288440207   -2.82265672335689   19.78431074777459
H         0.08711235519968   -3.17752995286634   20.87072540558221
H        -0.14548875602701   -4.15927060715721   19.42192297828873
C         1.67898309462822   -1.53817997096808   19.82075045972315
H         1.61140086795956   -1.77216548307325   20.88001778605859
H         1.57413917468523   -0.45569075010194   19.70592247452574
H         2.67296400328691   -1.83227605687102   19.46894952763957
C         1.33964908969686   -1.21704026532207   17.02601609841517
C         1.18624856176394   -1.04383623460515   15.67276546620453
H         1.85222536403363   -0.38919262691879   15.13973488833319
H         2.13621023537557   -0.68546500516067   17.52056197656481
H        -1.20755301234113   -3.38749947595221   17.55298237409638
H        -1.45838449096867   -3.08040244870190   15.17603420010142
H        -0.88776356961230   -2.21154608650804   13.20127023426839

