56
CSD_code = TEHSEG | q = 0 | S = 0 | Stoichiometry = C23H25MnO5Si2 | MND = 6
Mn        0.86455683764144    1.04427284739462    3.12100316944512
Si       -1.13836137149325   -0.16568359441949    3.66251374431831
Si       -0.36144693860686    3.96983903254067    3.66901878304429
H         0.14982179142025    2.20362361814695    3.82785399225869
O        -0.25283693989998    1.46635369479128    0.43967863451981
O         3.35238351781424    2.42544165784620    2.44393095771080
O         1.77127522761036    0.16558801389022    5.77103683711621
O         2.04167475754714   -1.40267877375453    2.04338150589271
O        -2.43257181262862    2.21596895799998    2.47892908271116
C         0.15340210913997    1.33407337759792    1.50712657726837
C         2.35741095493791    1.92909087109072    2.73495673767247
C         1.40661787972074    0.54483420212828    4.74918668168392
C         1.56082510563269   -0.45383504159641    2.47439636286129
C        -2.13043270884905    0.45935744015054    5.20733947212576
H        -2.69622671257862    1.35525812128465    4.97969880732042
H        -1.48883825542688    0.66925953571980    6.05760160125741
H        -2.83641934936530   -0.30827175123131    5.50654470058789
C        -0.90163315731869   -2.03988767164988    4.06437034660800
H        -1.85246213582648   -2.50508725298372    4.30484377454543
H        -0.25042008800291   -2.16331692601249    4.92466115184225
H        -0.45579933733777   -2.58809545496369    3.23971604966949
C        -2.48112124865725   -0.12880708340579    2.29151010451781
C        -2.96513715583516   -1.26445574247523    1.66190971826759
H        -2.61175661363347   -2.23243093292627    1.97782584468479
C        -3.87672090583888   -1.17006465217217    0.62661753671019
H        -4.23884669696151   -2.06419893328169    0.14075190620250
C        -4.32683980800940    0.06694998821842    0.20309121959354
H        -5.03389896105094    0.11536173975784   -0.60894596135140
C        -3.87772249970453    1.23001465207816    0.81311415681785
C        -2.95944578201079    1.10219314352911    1.85022824815174
C        -4.37664629520340    2.61900859899713    0.45775162887097
C        -5.48579624123037    2.98840852558916    1.46534704722123
H        -5.11274663170376    2.93592828471099    2.48622014706696
H        -6.31912018270294    2.29574673521020    1.36928928944736
H        -5.84276934170918    3.99955040424398    1.27864503780828
C        -4.94959997307918    2.69370556911371   -0.95721671381043
H        -5.32935298169447    3.69149452335571   -1.16095983136975
H        -5.78553748576971    2.00797594696199   -1.06243959823919
H        -4.19054287705023    2.44277362353098   -1.69463083642239
C        -2.37331301273215    3.35939782804148    1.74577280631762
C        -3.23244890966641    3.59172995936703    0.67065129579933
C        -3.03978140065767    4.74389932539773   -0.07520609915431
H        -3.66996498686573    4.95091991742076   -0.92456392905888
C        -2.04801777073122    5.65356144021328    0.25538442548984
H        -1.91706888011197    6.54240351286490   -0.34289506986921
C        -1.24487258618527    5.43683940058435    1.35633886838416
H        -0.49156179740798    6.16119220640118    1.62560138583348
C        -1.39058656436651    4.28270669010377    2.12226169307189
C         1.24157841041079    4.99464342564084    3.69551551199306
H         1.79675094878376    4.90589200152732    2.76538815213250
H         1.89701931331813    4.67482773570056    4.50094365316605
H         1.02300695075281    6.04727339991094    3.85243742120587
C        -1.36980449668990    4.18186137956177    5.26989396361331
H        -0.80586832439613    3.86873944307213    6.14421936542316
H        -2.28694918604515    3.60144366371522    5.24279957437081
H        -1.64343539969482    5.22470937545253    5.40745906665112

