47
CSD_code = TEHTEF | q = 0 | S = 0 | Stoichiometry = C16H26I2Si2Ti | MND = 12
I         0.22544258360785    8.41462426901971    7.43332083300528
Ti       -0.23048565839958    6.40399229852520    5.59224298875613
Si       -1.69683174140450    5.40453345178289    9.05192844697800
C        -2.51288955871025    6.91089442302834    9.87788211461585
H        -3.53085580043836    7.05299680590503    9.52635161620724
H        -1.96490320181248    7.82974712718899    9.69672585315733
H        -2.55768875636091    6.76495126890640   10.95240220192195
C         0.09213731236419    5.12060210255363    9.66389691278835
H         0.77751485687421    5.89369738166807    9.32720589688494
H         0.47988894349059    4.15696173432285    9.34207498730471
H         0.11411471455867    5.12522129799300   10.74909747626094
C        -2.71669977910408    3.83405078693998    9.43837090298756
H        -2.26730702072048    2.93898201845588    9.01916261190619
H        -3.72660194755061    3.90773391471798    9.04729605310111
H        -2.78995196349181    3.68978156496029   10.51074871558333
C        -1.76439272798854    5.56266558121124    7.16433314280203
C        -1.48321921376262    4.50937234709030    6.26322093430637
H        -1.08780492431645    3.54293844417790    6.54842861901598
C        -1.95476705094820    4.85650855439464    4.97945990993015
H        -1.97256039141274    4.21455184123456    4.10770605872667
C        -2.59125616657212    6.11041009487015    5.08465503118483
H        -3.16566904065774    6.59704190838786    4.30633833257097
C        -2.45182057292074    6.55787471254888    6.41068756523124
H        -2.89697746201768    7.45964096703844    6.81680898805337
I        -0.68677733305068    8.41444562660299    3.75118587294163
C         1.30339782423903    5.56267270466986    4.02016025970359
Si        1.23591009541212    5.40447196582044    2.13257109244675
C         2.05199480627289    6.91082849940482    1.30663073628995
H         3.06997204331574    7.05290574570950    1.65814272773378
H         1.50402650439731    7.82967335581382    1.48786992075051
H         2.09675656240367    6.76496821595094    0.23209723518501
C        -0.55303898651886    5.12056096501730    1.52053960792332
H        -1.23837683321395    5.89371827773629    1.85716141741217
H        -0.94086898223298    4.15696099003512    1.84238708386428
H        -0.57496934875602    5.12513326603801    0.43533596448264
C         2.25580613975918    3.83396421377713    1.74623577081818
H         1.80492463987754    2.93860428967304    2.16421179044709
H         3.26546193050760    3.90720006742764    2.13917814420337
H         2.33043033965283    3.69086962148603    0.67336695696848
C         1.02230018900476    4.50936600475350    4.92128222718492
C         1.49384960577871    4.85652589428484    6.20503346673148
H         0.62693956675200    3.54290973231091    4.63607542484651
H         1.51164837463917    4.21459381627941    7.07679989588584
C         2.13030415779943    6.11043542642759    6.09981185764377
C         1.99080650195350    6.55790677369399    4.77378881148787
H         2.70465914391820    6.59712254009425    6.87812901662550
H         2.43592762576674    7.45968711003991    4.36765852513481

