37
CSD_code = TEHWUY | q = 0 | S = 0 | Stoichiometry = C14H16N2O4Pd | MND = 4
Pd        6.19130052038487    0.00017439449342    0.00030492713398
O         5.30497921511622    1.54168225131069    1.10759711397318
O         5.55067942755407    2.39296393322783   -0.91053553262216
N         7.94374563084397    0.64906176584805    0.48608314591819
C         8.65793141065160    1.36634033226246   -0.38187762071660
C         9.92776498708228    1.82793773971622   -0.08006876708065
C        10.47124034773203    1.53753985235943    1.16308136320345
C         9.71812048596692    0.79366162740245    2.05991132083787
C         8.45629536644566    0.36559618342106    1.68401627118520
C         5.18527499688809    2.48632046164885    0.26588818340346
C         4.54076549548544    3.76619339948452    0.77728525305098
H         8.18020987348403    1.57504035129153   -1.33745428739167
H        10.48012415589618    2.40344205879119   -0.80603432746932
H        11.45960471287825    1.88269496397122    1.42667235747963
H        10.10316951131818    0.54677801097732    3.03673964087166
H         7.82872117916512   -0.23042096918135    2.34412671042527
H         4.86756643028780    4.60931555061579    0.17635656600257
H         4.79305147352364    3.91714838935910    1.82291300486240
H         3.46040616805619    3.66825770467839    0.69036619260640
O         7.07846567759456   -1.54111241160420   -1.10651882274444
C         7.19801215582862   -2.48599977915095   -0.26501818274464
O         6.83239656021357   -2.39287947479302    0.91136677154826
C         7.84205392946648   -3.76589778872789   -0.77688179775007
H         7.51635000599541   -4.60892537750415   -0.17522187570055
H         7.58820418898242   -3.91727354091611   -1.82208083080780
H         8.92248431280847   -3.66760492449075   -0.69166987560619
N         4.43901036991770   -0.64901256662492   -0.48574258119236
C         3.72520593526981   -1.36791420639105    0.38121346570038
C         2.45567255205530   -1.82984382009204    0.07868238090027
C         1.91199712598380   -1.53790800992980   -1.16400972780944
C         2.66465926654817   -0.79220157130099   -2.05966138878828
C         3.92624054844031   -0.36410802483287   -1.68323443340605
H         4.55363197164570    0.23302019484215   -2.34249515145481
H         2.27951620187713   -0.54422422608901   -3.03617270634110
H         0.92380452916976   -1.88317733781333   -1.42804431918685
H         1.90367627505721   -2.40674063784575    0.80378029497694
H         4.20316700439214   -1.57792449841569    1.33633726473423

