20
CSD_code = TEHZIQ | q = 0 | S = 0 | Stoichiometry = C5H8NOReS4 | MND = 5
Re        2.03129197765329    2.94045727518600    1.40998363151824
S         0.90199774794815    4.90368047860709    1.93545855592128
S         2.77942965080161    2.94043796198752    3.77105652256063
S        -0.42086042188374    2.94070139203229   -2.58528583369342
O         3.62727536076011    2.94049792161354    0.91240947598893
N         1.01941992182175    2.94065645086418   -0.24296225171273
C         1.77092215881074    5.46820116032695    3.44755007229272
H         2.76084997278635    5.81505268596116    3.14937821891327
H         1.19568547026327    6.31053812072350    3.83356860381335
C         1.85998042221948    4.36594963434070    4.48103162340588
H         0.86446875368319    4.02700581095290    4.76865070526756
H         2.41161875085215    4.69315689236567    5.36303899040136
C         0.40947761775005    2.94069729115000   -1.25718961001480
S         0.90240018988429    0.97719830447109    1.93551841172395
C         1.77102573960809    0.41266642720440    3.44773492921183
H         2.76099389187595    0.06582329534841    3.14973736415981
H         1.19573893233638   -0.42965326477106    3.83370935842204
C         1.85988124255136    1.51502328528117    4.48109061422125
H         0.86432183168089    1.85398801397036    4.76850626189192
H         2.41138078859653    1.18792086238422    5.36321435570695

