89
CSD_code = TEJCIX | q = 0 | S = 0 | Stoichiometry = C42H32CdCl2N8O4 | MND = 6
Cd        5.85135751823523    4.43815329040749    3.75089248931077
Cl        6.79906466846574    3.23458566119714    5.56499691844259
N         7.94651341583262    4.65311597526177    2.59000378614306
N         7.19004104016252    6.45169606037832    4.54244258174873
N         7.17066137957442    7.39540352497188    5.44951601958375
O         7.44328022515888   12.83453821839318    6.41830155898133
H         7.64804702035619   12.20774418640814    5.70815360076313
O         5.71882392459353   13.91036110268308    7.29865403749594
C         8.30360641518114    3.73966967639197    1.70371155843195
H         7.55557067750797    2.98894911548822    1.47580922706855
C         9.54737497388499    3.73963418134052    1.08680349545166
H         9.80342876890202    2.97007084748372    0.37620234473611
C        10.44366307951623    4.74779821534215    1.40470046888265
H        11.41842116202490    4.78688476900249    0.94129510141836
C        10.07364437457497    5.70406025600360    2.33396935422356
H        10.74973342962317    6.49774381119307    2.60947614251011
C         8.81082696096020    5.61511717896346    2.91875222898095
C         8.37995193946404    6.54466970082054    3.94937197304175
C         9.05444154520495    7.61600164548975    4.56189945033654
H        10.02940875698840    8.01897023329571    4.38377850634734
N         8.26385211750149    8.12381008209585    5.49019056123316
C         6.09288817366273    7.53220396890556    6.34424311329383
C         5.52334273586809    6.35435160679944    6.82318933215405
H         5.95413308714364    5.40182241710309    6.54369005665177
C         4.44231094683449    6.41590358742460    7.68085095193238
H         4.01273430027200    5.50310639604094    8.06299043738689
C         3.92754772133217    7.64619518229819    8.05832809878700
H         3.08017796109811    7.70017716515534    8.72464037445370
C         4.51718464416114    8.80951952627629    7.60142844560864
H         4.13048994783771    9.76933837723183    7.91139447560437
C         5.61527067253178    8.78023819350503    6.74759838253629
C         6.22567060877144   10.08658655740305    6.31483323663389
H         7.12875433855736    9.89087060512643    5.73318653692742
H         6.52353631326508   10.62807836871504    7.21606968670954
C         5.26545963336745   10.92377404204105    5.50730473526411
C         4.36146960029877   10.30402148098936    4.65261328326588
H         4.37539884385803    9.22649663712466    4.57109996576041
C         3.43170123444292   11.03572568075627    3.93597328453382
H         2.72959256398170   10.52582340513537    3.29202173041103
C         3.38263504297752   12.41595242798995    4.06671737188603
H         2.63985878480059   12.99166522535627    3.53569989104908
C         4.27694823251466   13.04972948003657    4.90795350353357
H         4.24773841968983   14.12043721185991    5.03796450836608
C         5.22630880993038   12.31727302399752    5.61439084870647
C         6.12756094600066   13.09132412324696    6.52651255295447
Cl        4.90281672990023    3.23616335969488    1.93599430208311
N         3.75592240258020    4.65320406553835    4.91179580511067
N         4.51630142408037    6.45192989841440    2.95970229506669
N         4.53553018581356    7.39400937291584    2.05092463579168
O         4.25381984362990   12.82770228907800    1.08815845986199
H         4.05005371435289   12.19635734272027    1.79444034636667
O         5.97512437486953   13.91587247625161    0.21722491649556
C         3.39685356221260    3.74094961564849    5.79850719184015
H         4.14214768653647    2.98697746846824    6.02455973382990
C         2.15430393402600    3.74584896594311    6.41789981471592
H         1.89628115990796    2.97693906510040    7.12849360211014
C         1.26176889071100    4.75818307780349    6.10264603854209
H         0.28830516515865    4.80146828239118    6.56839611597461
C         1.63385825898096    5.71318479572591    5.17295436946467
H         0.96079620055268    6.51015359127699    4.89954331670737
C         2.89486764329240    5.61878521763206    4.58509197565595
C         3.32662159649420    6.54628366746871    3.55304014594987
C         2.65206552642236    7.61657138862911    2.93877999429053
H         1.67716463629955    8.01992037674616    3.11634544644940
N         3.44238911111177    8.12244705824112    2.00927689557437
C         5.61305518376238    7.53057373458395    1.15586150568182
C         6.18316005019081    6.35303595433175    0.67695131578531
H         5.75311525820378    5.40030232948200    0.95688622203214
C         7.26367952865729    6.41526133070046   -0.18137019875018
H         7.69389126884107    5.50274977685268   -0.56348461977201
C         7.77715234559911    7.64583038968978   -0.55966735816367
H         8.62391938441405    7.70030670101971   -1.22670463480248
C         7.18697198535359    8.80885596590024   -0.10265870565216
H         7.57266989090256    9.76889684894990   -0.41316050716910
C         6.08956945449932    8.77888859413317    0.75195428753480
C         5.47837219297226   10.08471131275529    1.18510503706050
H         4.57425040320576    9.88800301551147    1.76480008433382
H         5.18201648044091   10.62717293024935    0.28398368088292
C         6.43660900608822   10.92143005661321    1.99541165493292
C         7.34240113448342   10.30121247248818    2.84784688606960
H         7.33129209004654    9.22339675690644    2.92591047016551
C         8.27047195197515   11.03292546400523    3.56665887816382
H         8.97397051736289   10.52282536009245    4.20887988199145
C         8.31585834757724   12.41369213441760    3.44049886761866
H         9.05779163617083   12.98951164721454    3.97261997091493
C         7.41948923504216   13.04795206061632    2.60177973283998
H         7.44583508585169   14.11915262774859    2.47530327621939
C         6.47184152101096   12.31542398199413    1.89310547005856
C         5.56869704331981   13.09024475532123    0.98359719053700

