78
CSD_code = TEJDOE | q = 0 | S = 0 | Stoichiometry = C39H30ClF5P2Pd | MND = 4
Pd        0.46867411198189   10.76586609003735    9.53209261345142
Cl        0.02975088649084   10.42087668180768   11.75440114834186
P         0.39700796177018    8.53393635274534    9.18254306770744
P         0.18969927058840   12.92823303373988   10.09722142733953
F        -0.42763863728430   11.21469957321950    6.95170410599723
F         2.04709616485606   11.39705344444428    5.64260860916111
F         3.85842562122423    9.92599380388169    7.42159129648995
F         3.01877986719380   11.04571958100058    9.05542612579145
F         4.05136916120793   12.06010580305801    7.45551454708413
C         0.73506287544100   11.10345097427280    7.63897804012002
C         1.88818259831126   11.19436587118527    6.98779427035794
C         3.19414716122438   11.06163856969374    7.70194552861148
C         1.25180121414836   13.62097328200522   11.38679846597700
C         2.29980447809633   12.85591535471505   11.88345697173754
H         2.43715391912187   11.84314063968633   11.51839534311657
C         3.14251531002396   13.38773032689615   12.84315325860195
H         3.95545462359008   12.79513373139219   13.23551374030840
C         2.94282895100061   14.67991872360188   13.30024007819182
H         3.59825766442094   15.09326171056989   14.05271733413201
C         1.90808847859074   15.45016102112576   12.79104450398012
H         1.76220346020433   16.46092817304243   13.14344578501592
C         1.06474397795234   14.92779416448317   11.82881914262223
H         0.26518715357513   15.52654950635286   11.41216596866022
C        -1.53265754872187   12.99823356813605   10.65710871322112
C        -1.94655095053107   13.42628557614754   11.90988590147701
H        -1.22431109923368   13.80540981664880   12.61832726273551
C        -3.28514680876880   13.33490611369849   12.25371802133578
H        -3.60873107465188   13.66080508810712   13.23131238564559
C        -4.20521922506779   12.81741356302999   11.35799039201244
H        -5.24631655341208   12.74508981884275   11.63671198034370
C        -3.79179322113716   12.37846197244758   10.10887745404537
H        -4.50910251017778   11.96705218317972    9.41309933558948
C        -2.45755592651092   12.46007606793858    9.76025556958173
H        -2.11561715697728   12.11689651793536    8.78383443133897
C         0.31037333964659   14.22244388573360    8.82121025352947
C        -0.76144763406836   14.97236963323135    8.35592660595981
H        -1.74620331293958   14.83326821432142    8.78026934228134
C        -0.56354811531358   15.89985857903818    7.34705071760683
H        -1.39866640067506   16.48222986860688    6.98584660040962
C         0.69474958757738   16.07882750976271    6.79826493852442
H         0.84009857154774   16.79765390870237    6.00574630788153
C         1.76846900025473   15.33428674037865    7.26294269170910
H         2.75066828195700   15.46927421886160    6.83553880212394
C         1.57614749139199   14.40987304213714    8.26980961159106
H         2.40638147158649   13.82354353289562    8.64599089052194
C        -1.13691067378861    7.93558554556652    9.94948131120692
C        -1.28366397509520    6.69417863456953   10.55171116756751
H        -0.45051099559992    6.00732826691341   10.59261260455206
C        -2.49843597132831    6.35355063892775   11.12244065997543
H        -2.61375647717122    5.39133748639378   11.59966166407050
C        -3.55917999070485    7.24336025891806   11.09486156139820
H        -4.50004873261936    6.97286060355742   11.55109083557057
C        -3.41253538692181    8.48581594399964   10.49700146440245
H        -4.23446296850660    9.18659932907171   10.49033359798297
C        -2.20365699630356    8.83277128075939    9.92702317786250
H        -2.06170852787117    9.81694674075880    9.47477304318422
C         1.76935308481187    7.59648891787053    9.89733744690958
C         2.62662894198397    8.26984642410957   10.76179386394558
H         2.43947886911738    9.31690997816666   10.98654339891964
C         3.69376515655748    7.60086572918948   11.33357327008574
H         4.35989731171016    8.12143565925482   12.00524412262418
C         3.90815715587640    6.26398772434310   11.04108235881622
H         4.74191809714776    5.74100921806421   11.48591355848855
C         3.06035145286295    5.59401652019015   10.17206806107803
H         3.23581622908095    4.55337892019744    9.94090228565790
C         1.99253078780840    6.25555539775876    9.59489058975227
H         1.34094433632461    5.74302260091667    8.89948582748263
C         0.28961952317376    7.93168052814717    7.47110180902796
C         1.46231966767147    7.74143444425074    6.74397386312928
H         2.42072693631127    7.85736942481398    7.23164172204358
C         1.40004017203504    7.40509370238588    5.40511640771506
H         2.31284067328104    7.26163730262289    4.84652856138685
C         0.17102201335613    7.26589695373834    4.78025582255191
H         0.12455907090280    7.01089070622414    3.73206407862229
C        -0.99720097166720    7.46277571568618    5.49770350229987
H        -1.95549904058307    7.36108821840432    5.00991351837276
C        -0.94205380342953    7.80045420310586    6.83774916911452
H        -1.85406144792094    7.96422114839632    7.39593609191345

