37
CSD_code = TEJDIY | q = 0 | S = 0 | Stoichiometry = C14H12F10Pt | MND = 6
Pt        0.00002412450917    4.38628905387430   10.33943365149857
F         2.01128723032197    2.34828799362844   10.63532593408375
F         1.30719476593457    1.33432065200940   13.04799230337566
F        -1.38798619322947    3.58949101709792   12.62383504577342
F        -0.07186444174915    3.64574939857278   14.31064325991152
F        -1.19382862901197    1.86121678141257   13.89786760862540
C         0.94682354447231    2.87697829831107   11.27660886744626
C         0.62165155200029    2.34395082722128   12.45606086113749
C        -0.50630359871833    2.83768486550775   13.31761785976012
C         0.67774690926047    6.00515764442052   11.74912823477443
H         0.87872202343034    5.50710469808278   12.69716311856165
C        -0.36474606305523    7.09537193145289   11.81801978914710
H        -0.54508067016945    7.33533434203486   12.86680646722622
H         0.01726555669302    7.99798288569716   11.34210772991818
C        -1.70936963978653    6.66954180585075   11.19495691354836
H        -2.31577926277141    7.55680986637545   10.98868869890079
H        -2.25624643562869    6.06828347712600   11.92512130251670
C        -1.59891236626609    5.85258880721967    9.93455899461857
H        -2.48942960262765    5.25659505936005    9.72710558326173
C        -0.67773649183931    6.00514046459036    8.92973839556900
H        -0.87872095367879    5.50709712533870    7.98170039830387
C         0.36474519192692    7.09536634149515    8.86084222343663
H         0.54507721434963    7.33533058020758    7.81205579620868
H        -0.01727197571489    7.99797459359676    9.33675439531425
C         1.70937389450583    6.66955410530290    9.48390534615887
H         2.31577119918512    7.55682675084583    9.69018241232262
H         2.25625692682385    6.06830305969965    8.75374071713545
C         1.59892496437979    5.85260970624603   10.74430877055263
H         2.48943099603669    5.25659672451278   10.95174857987877
F        -2.01129948462313    2.34832518561948   10.04352341909171
F        -1.30716755809082    1.33434233942926    7.63086098805022
F         1.38797190129194    3.58956082833621    8.05498650345659
F         0.07188335849904    3.64572464100928    6.36815496148343
F         1.19383580671615    1.86121174241169    6.78104895898037
C        -0.94687290510099    2.87706332120570    9.40220403206621
C        -0.62167451839114    2.34401827299458    8.22277301289232
C         0.50630363011685    2.83771481190782    7.36122886500958

