43
CSD_code = TEJGIZ | q = 0 | S = 0 | Stoichiometry = C18H18N2NiO4 | MND = 4
Ni        0.38953513243022    7.20985829358811    5.05701705373923
N        -0.57427523803089    5.63076058350958    5.08184869666515
N        -1.21559613572094    8.07786741531319    4.75083981367299
O         1.99109252288985    6.32064679848254    5.28004970462560
O         4.50429102855511    5.65469076695070    5.50438511065743
O         1.32348059947746    8.80026950936880    5.11058245921211
O         3.13427164685667   10.66242488348196    5.36241638048168
C         2.23964385301049    5.06916769441062    5.28866393700570
C         3.61129568376080    4.63441336674379    5.40612603292956
C         3.92191691546941    3.29936050638701    5.41060135799188
H         4.94745629957113    2.97426414204537    5.49382675779838
C         2.91839890586865    2.32045010740064    5.30836297259893
H         3.20203609029792    1.27926761926128    5.31413308481899
C         1.61051512396185    2.68569890455937    5.20806797695628
H         0.83262309062624    1.93956407639062    5.13437327542401
C         1.24378570982386    4.05130721885016    5.19828056592611
C         5.86473789108802    5.34258539175361    5.63849594783059
H         6.38032601582169    6.29890762229612    5.71012341140184
H         6.24224368600308    4.79259988063263    4.76888495360762
H         6.05840228628640    4.75841326390402    6.54546798229994
C        -0.11868488628262    4.41660999249892    5.12355577993094
H        -0.83995526124275    3.59635389460569    5.11467987556825
C        -2.01681103483997    5.83115505753960    5.11475279377680
H        -2.33991753217490    5.86330559180375    6.16356011140533
H        -2.54462301863463    5.01008380023932    4.61394913833289
C        -2.31691494708633    7.17396870242578    4.44669701951363
H        -2.36629163714510    7.03893431750305    3.35823281818694
H        -3.27494287678892    7.58414369211908    4.78941614390572
C        -1.44152431391294    9.35534013198324    4.72602235044087
H        -2.46389136166667    9.69296491437462    4.54192189145615
C        -0.47064255915342   10.36623063683737    4.90142863818982
C        -0.85453603265332   11.72699552671891    4.87990235478942
H        -1.89929652513108   11.96879150385434    4.74848074156486
C         0.07540811568837   12.71136616526751    5.02212414244825
H        -0.21420688527355   13.75081944161856    5.00768380250630
C         1.43281617912847   12.38573164529813    5.18697959315817
H         2.14315439668102   13.19107767250871    5.29271477548027
C         1.84929400140584   11.08006487597570    5.21257335546617
C         0.89802294511522   10.00270143465733    5.07618914801602
C         4.14098417671317   11.62944959563064    5.49500296029938
H         5.07203335629312   11.07343322356026    5.59251688060993
H         3.99392197293710   12.24784190625024    6.38786566728613
H         4.19782261997825   12.27821823139933    4.61340254202367

