47
CSD_code = TEJHUM | q = 0 | S = 0 | Stoichiometry = C16H20N2O8Zn | MND = 6
Zn        2.32359226295374    3.51044730040757    5.55719021891354
O        10.53419959852165    2.61647759704755    7.21196591717170
O         3.46221476845576    2.11659836477669    4.20329877784982
H         2.90476579147276    1.66880777054596    3.55919740544725
H         3.96619196284401    1.43632916205027    4.66189072870051
O         9.41696424828105    4.20205678208658    8.42794103809070
O         3.56209301930443    5.34840823954260    5.10384282357372
H         3.58595676469736    5.68350300953936    4.20238201614432
H         4.46389426778264    5.36817170239619    5.44250702101755
N         3.53987992141809    3.09321534444930    7.02846478688624
C         4.84641347404319    3.04508262268897    6.79344468775741
H         5.15941817610931    3.16207678659566    5.76480757979114
C         5.84070442277218    2.85983570813727    7.77907871989583
C         5.35446307626600    2.70453924154492    9.10614930145929
H         6.05021495100401    2.57220049100883    9.91775703831080
C         4.00611000117474    2.73674961313022    9.34172989709941
H         3.61708804387002    2.62041486784373   10.34155225569193
C         3.11121591480836    2.93513624163678    8.29118676234526
H         2.04767996728765    2.98715995812857    8.46118720035542
C         7.19296616040087    2.82259214149600    7.39386323020502
H         7.39748782906758    2.99420921041195    6.34390770893926
C         8.26998671471244    2.61917297133864    8.21955942422362
H         8.13743003695383    2.39951927680903    9.26800252201076
C         9.64312638607263    3.10476666869462    7.84943487944759
O        -5.88979709028635    4.41039287526131    3.91888032842973
O         1.18564562952635    4.90830904045833    6.90944428276453
H         1.74270206099126    5.35910518016056    7.55180583322332
H         0.67931729528323    5.58605646303373    6.44958288374422
O        -4.77720389841300    2.83034108178785    2.69158299627216
O         1.08806010384053    1.66927664881121    6.00947219883533
H         1.06865995026569    1.33214962401835    6.91028596108699
H         0.18480670132105    1.64935277905745    5.67490064649426
N         1.10435005268961    3.92786969486471    4.08834247190525
C        -0.20177208037221    3.97545786172993    4.32577523704174
H        -0.51303245254062    3.85478620747905    5.35451974431424
C        -1.19768641570497    4.16482124453285    3.34257194709864
C        -0.71369826968742    4.32477345637985    2.01523654818890
H        -1.41078934362582    4.46063227249569    1.20535554576582
C         0.63420477503805    4.29243385646045    1.77713319192651
H         1.02150522251534    4.41203005681308    0.77702895864863
C         1.53082950245276    4.08989967877058    2.82541490070370
H         2.59404297367249    4.03797885400566    2.65335476191375
C        -2.54924582567011    4.20154953179290    3.73031149250878
H        -2.75214997954182    4.02504810132325    4.77977299601528
C        -3.62735252702332    4.41044629996807    2.90746833184813
H        -3.49621826490064    4.63538388737492    1.85994598634894
C        -5.00043588009793    3.92433423110685    3.27737081359445

