92
CSD_code = TEJJAW | q = 1 | S = 0 | Stoichiometry = C45H41AuN2PS2(1+) | MND = 2
C         2.15229427134930    3.57398564858746    6.00666167826037
S         2.89778652658643    2.00463837156479    5.89194982396862
N         2.32077836966010    0.73049948527820    5.24295386183378
C         1.10084315248990    0.10087390192686    5.64023269769919
H         1.18657524633572   -0.36817613973049    6.62845607207177
H         0.88201726986882   -0.67427291564052    4.90700781769582
H         0.24770092731616    0.79883031589798    5.67212627708492
C         3.42846007447369    1.69361255817092    7.60076824719793
C         3.34907983296195    2.66390570633512    8.58271291768869
H         3.00501675865932    3.65328850378293    8.32562760231007
C         3.71076583937012    2.33987520413976    9.87992049376798
H         3.65041663382564    3.08882794227465   10.65471832964037
C         4.14905717061782    1.05951305788600   10.17998636559922
H         4.42867458207322    0.81089549778055   11.19237496706718
C         4.23338880935750    0.09718113135829    9.18557666281674
H         4.57933627996426   -0.89762763017607    9.41969453991322
C         3.86817893605392    0.41287869293146    7.88827999776618
H         3.91640252695478   -0.31633501243082    7.09355132887800
C         4.45165998598115    2.15539704561694    5.00924184162684
C         5.46976492299746    2.90030042623125    5.57816069785000
H         5.33763958906905    3.33910188835218    6.55559864939710
C         6.65283762066216    3.06123192447364    4.87918749473902
H         7.45827063789507    3.63215780088984    5.31413342807341
C         6.79954319809458    2.49002106101336    3.62493470569400
H         7.72317963019394    2.62044249213252    3.08240257278949
C         5.77038993897752    1.74764796498510    3.06842811234654
H         5.88946550961331    1.30035509806609    2.09392266305120
C         4.58542172191749    1.57520630130636    3.76257089264901
H         3.76738467075535    0.99717031007270    3.36618527241166
S         2.07338338638053    4.21445202649506    4.39434296821774
N         1.82338155393053    3.47797576986508    3.07045454388657
C         0.75644782194436    2.54541379748513    2.84184476310865
H         0.93271167883648    1.59784876332178    3.35759656994241
H         0.73336504748028    2.35576183687823    1.76905919317587
H        -0.22065759929376    2.93819173233089    3.14761023389802
C         1.03804203896114    5.70858770379152    4.56246334356060
C         0.38398186811514    6.13607390014033    3.42148544248143
H         0.52409415346569    5.58722975981826    2.50241004955066
C        -0.43218589764397    7.25285993622777    3.48114904684379
H        -0.94898721017186    7.58944109767213    2.59585415044133
C        -0.57896306361192    7.93548821228276    4.67775991079349
H        -1.21217460045411    8.80826755651252    4.72459701922331
C         0.09146554014863    7.50718480569319    5.81295181502618
H        -0.01538026151502    8.04666396355620    6.74197484390356
C         0.90414982405675    6.38672494447130    5.76038114484942
H         1.42417059942865    6.04082392381316    6.63932813767682
C         3.65247489769581    5.01106585100413    4.04664970896789
C         4.25004529753261    5.74913814947789    5.05278594122920
H         3.77308749817968    5.82015824489890    6.01797409138130
C         5.45693114179792    6.37706544543325    4.80254275441213
H         5.93052912846140    6.95977365070064    5.57759131516691
C         6.05417025605573    6.25587756883270    3.55760302791647
H         6.99597774326622    6.74614985674814    3.36463990338073
C         5.44636362721289    5.51077598514348    2.56016838497224
H         5.91261970303178    5.41897231705532    1.59157624775751
C         4.23512584172991    4.88541184668655    2.80109094018754
H         3.73160383371088    4.29848413211213    2.05088429909551
P        -1.71101223101940    2.74592195969579    7.74959792070896
Au        0.29217715136565    3.22954169087384    6.79192173942076
C        -1.58481933980932    2.60734365894479    9.55218169919457
C        -0.40661835265538    2.05357206187538   10.05042889907887
H         0.36927927000302    1.74149219128392    9.36003937927451
C        -0.23346888453696    1.90753345782579   11.41323728034166
H         0.67816315049008    1.47361892640668   11.79596648243854
C        -1.22925889213921    2.32449383994060   12.28352872481770
H        -1.09370144989553    2.21452512296683   13.34847458653774
C        -2.39511457711045    2.88791910321391   11.79031714703588
H        -3.16550562149602    3.21717756160592   12.47091724895811
C        -2.57863461407207    3.03284081797511   10.42613061124888
H        -3.48557519952355    3.47732591889728   10.04139509775237
C        -3.04454930530018    3.92966448778355    7.43371986768375
C        -4.38782069603217    3.57434446559480    7.52953782215452
H        -4.66058624390201    2.56019044153516    7.78932338032364
C        -5.36313879464756    4.52288023454963    7.28326842954277
H        -6.40530500383565    4.25194307919084    7.35933738047264
C        -5.00609078630246    5.81735283095743    6.93702198893793
H        -5.77278609240115    6.55188533941094    6.74402828545337
C        -3.66983644060139    6.16883110147228    6.83161581079406
H        -3.39173728939000    7.17406357507309    6.55327032818894
C        -2.68817297680610    5.22688289834009    7.07826631107829
H        -1.63955291850484    5.48534900187011    6.99104266244268
C        -2.41326923481545    1.16328725039901    7.21454079087083
C        -2.69368408291094    1.04578168298637    5.85356100063871
H        -2.53123943685896    1.89784707291409    5.20354129667462
C        -3.18281303495298   -0.14275609347897    5.34959763070978
H        -3.40703778798191   -0.23158929661302    4.29739688191059
C        -3.38202077798389   -1.22156592303862    6.19870011662533
H        -3.76388325536359   -2.15107282922859    5.80535541152165
C        -3.09133645965172   -1.11018570543352    7.54816918103177
H        -3.24611306014542   -1.95228991297967    8.20564837485632
C        -2.60218699668896    0.07884222113081    8.06230271707017
H        -2.37375421735893    0.16651835447919    9.11548171126947

