33
CSD_code = TEJKID | q = 0 | S = 0 | Stoichiometry = C12H13Br2N3NiOS | MND = 4
Ni        2.18945961007745    3.38726473975191    1.83990556018518
Br        2.03620626248342    2.72490403303807   -2.78282714230812
Br        1.60645797719297   -2.88724078091714   -1.96087109411082
S         2.51420805609659    6.81028984690657   -0.95015891113491
O         2.06678992854661    2.71168778475770    0.13927973958714
N         2.00049954332474    1.69749421710360    2.63218056247215
N         2.37007110198032    4.12190089895585    3.71476710537486
N         2.31409322987639    5.07353295435194    1.17329994237885
C         1.88366429702615    0.36709070118355    0.63006390725701
C         1.96657075383015    1.49815296548273   -0.23894929950906
C         1.93060433871005    1.22213697671211   -1.63774207802217
C         1.82628473161763   -0.04511261974817   -2.14187896855044
H         1.80241305992796   -0.20921215998919   -3.20811947784884
C         1.75075972872303   -1.12456210494555   -1.25489161691082
C         1.77791910526513   -0.93170044322944    0.09997931733016
H         1.71752251786000   -1.77393165284829    0.77294818311685
C         1.90134272424117    0.55525679498980    2.03779151055641
H         1.81776866799750   -0.34919914056205    2.64490953951465
C         1.95041012343309    1.72730156136433    4.08456472544561
H         0.90197308912442    1.78095643328503    4.40387372107634
H         2.38554665225666    0.81764590521707    4.51758447218062
C         2.71781458503868    2.96129157851664    4.55388157129085
H         3.78822076468947    2.77022822121344    4.43654060882276
H         2.51348488938462    3.17087705220187    5.61296103970260
C         1.05290058650341    4.65296579418418    4.09254042880107
H         1.04770958145674    4.95076404423438    5.14827697238358
H         0.27321748733646    3.90972504155000    3.93005028072489
H         0.82815051611012    5.52253855765648    3.47653625398578
C         3.36881441052887    5.17550468522915    3.93271254108304
H         3.11257870267251    6.05051972450483    3.33932154543929
H         4.35226083083625    4.82895585958492    3.61913951770812
H         3.40445235232319    5.45291727645991    4.99262271777673
C         2.39772979352656    5.73475525380708    0.18910682420160

