59
CSD_code = TEJKOL | q = 0 | S = 0 | Stoichiometry = C27H26AgClN2S2 | MND = 2
Cl        2.04668653914333    2.58647211635638    0.36382161252846
Ag       -0.03664492476494    2.41223393953779    1.26270179026342
C        -1.97041794581812    1.84273677515197    1.83265525017637
S        -1.97800759990759    2.11545145011407    3.52698858706577
N        -1.35864809517306    3.26837317170362    4.34429805970162
C         0.04500426571271    3.51386960033838    4.42229265726505
H         0.51865934827925    2.85044671975475    5.15618066445657
H         0.18684211380211    4.54588623032870    4.74182021279895
H         0.57654781062869    3.37815117369811    3.45039495395618
C        -1.53052128427982    0.49110765405536    4.21015140572177
C        -1.84205572626067    0.26943262800671    5.54188843561124
H        -2.37895537332158    1.02857740185514    6.09139113799503
C        -1.45729417100425   -0.91511608359487    6.14375113215103
H        -1.70179845675992   -1.09566539276034    7.17961587014098
C        -0.75183799946426   -1.86202176809298    5.41731611783612
H        -0.44714614981183   -2.78416385527423    5.88885794986917
C        -0.42685243239296   -1.62339030990478    4.09188252825027
H         0.13366556848815   -2.35442269519006    3.52979648440904
C        -0.81289853557009   -0.44056022301641    3.48270973623145
H        -0.55352295349201   -0.23935065699174    2.44836950441176
C        -3.69396681170681    2.25045234977250    4.05576458832392
C        -4.15178761429977    3.41209279133367    4.64708732294613
H        -3.44266676085358    4.19597698373338    4.85665390142284
C        -5.49652528810826    3.52725147854815    4.95421229785172
H        -5.86583687691745    4.43014518436506    5.41641182526501
C        -6.36519104083866    2.48676754957021    4.66831367669348
H        -7.41364408813858    2.57843751043585    4.90908628011706
C        -5.89503121101477    1.32634947142903    4.07355140320631
H        -6.57316487085066    0.51630861115740    3.85240340857194
C        -4.55439211115075    1.20779396241324    3.75631083973825
H        -4.16813356775834    0.31637158235743    3.28419041629699
S        -2.66473202170914    3.24288990344094    1.12024716533758
N        -2.59980673549651    4.70129546952762    1.59759074068693
C        -1.38652601116622    5.42806323554291    1.80755556831747
H        -1.30332174236565    5.70822592729527    2.86048337316237
H        -1.40617045631607    6.33770844607299    1.20173894140183
H        -0.47484246673052    4.86099961461344    1.52641403409821
C        -4.46029121051633    3.01419437064582    1.08982231624470
C        -5.31822432847154    4.00745607881541    1.51850105099923
H        -4.89807036856964    4.94077008246688    1.85585285768294
C        -6.68268996135463    3.77467431047858    1.50326862704182
H        -7.36166877176416    4.54427599396052    1.83820848511468
C        -7.17510394088190    2.55947603751637    1.05702563648634
H        -8.24015536443471    2.38214260988291    1.04314390661883
C        -6.30573892302853    1.56953275390852    0.62682065321245
H        -6.69029363830134    0.62321748937947    0.27724632141196
C        -4.94133080107834    1.79428996251495    0.64744975090499
H        -4.24520644145474    1.03350843758790    0.32724201722621
C        -2.38283656039458    3.06765818220478   -0.67543122014507
C        -1.90477011910097    1.90629436252783   -1.26024307761820
H        -1.72353484399178    1.02083971314675   -0.66208183870807
C        -1.67860970194672    1.88625404729664   -2.62709897249023
H        -1.30255461657931    0.98778840168705   -3.09177447412132
C        -1.92522683087370    3.01522157924761   -3.39217953671439
H        -1.73407601764768    2.99629124028387   -4.45446052575260
C        -2.41183298035776    4.16870050168946   -2.79894766899435
H        -2.60356198789932    5.04841492821760   -3.39454081521148
C        -2.64395179814322    4.19475326041786   -1.43509115481579
H        -3.01633511581294    5.08006770843575   -0.94083221264517

