56
CSD_code = TEJPOQ | q = 1 | S = 0 | Stoichiometry = C23H26ClIrN5(1+) | MND = 8
Ir       10.27548651784923    9.36618802697937    7.82200874729256
Cl        9.91628012369041   11.32190696059183    9.10314590691309
N        13.05994085930378    9.87593396485916    8.29780951879796
N        14.18319070731885    9.76219909749742    8.97200504947924
N        13.88452642427429    9.04062797660572   10.00893646708973
N        12.69288018068204    7.07067307932976   11.77218715195203
N        11.60735870759218   10.56864438876658    6.69988405004056
C        11.99831072060192    9.22229839355187    8.87107725646187
C        12.57381829691977    8.69311321958471   10.03012017507301
C        11.95511740310848    7.98152439187385   11.14102526303818
C        10.65425665931538    8.30525671331976   11.52180562078891
H        10.12404450839842    9.08348245211117   10.99763428092830
C        10.10579897595868    7.63191535743683   12.60131219620095
H         9.10766393813503    7.86436935721783   12.94109712430543
C        10.86333736049933    6.66480370779227   13.24504454514912
H        10.47083525046845    6.11754769962450   14.08650583232219
C        12.15383644123503    6.42725322455958   12.79037420814978
H        12.79135630292235    5.69414921689793   13.26474065270410
C        12.86327008544052   10.65300014593830    7.16938004950091
C        13.84277743041689   11.46287871038180    6.61490014833650
H        14.82808930648164   11.47784602845635    7.05050926269289
C        13.49632986648095   12.23671712233942    5.52156680615570
H        14.22323030083227   12.88328778220103    5.05701817520162
C        12.19224815014013   12.17443007240471    5.04337781131708
H        11.88201631436673   12.77516443685873    4.20430005556912
C        11.28300774630184   11.33468979412564    5.65891438039377
H        10.26120834147994   11.27905148654273    5.31677223942991
C        14.89425398622256    8.71858501439077   10.97019922504812
H        15.00214933655981    7.63709868335893   11.04540423558399
H        14.60896069274053    9.09939622647141   11.95097412977977
H        15.82580755987127    9.17779368608522   10.64671605894003
C         8.80049419144435    8.71118624276422    6.18516295338053
C         9.71240066656668    7.64129707551527    6.54474624284180
C         9.45777797364406    7.28258865400848    7.90514858134059
C         8.49915541139778    8.21485409550074    8.42234688420806
C         8.06546760909052    9.06517962473434    7.32471256798488
C         8.58212913178821    9.20034941162639    4.79272624786125
H         7.87697535884320    8.53604503107491    4.29025568036045
H         9.50459760723684    9.19698453007196    4.21522822852642
H         8.15728532598128   10.20181303839912    4.78137418608220
C        10.51836716705205    6.84998977062363    5.56910641541762
H        11.33363323861597    6.32673001019941    6.06234031282238
H        10.93417077132213    7.48345369129970    4.78850071471531
H         9.87989391483783    6.10562052627214    5.09076393321230
C         9.97945263435422    6.07042479588970    8.60379867796266
H         9.31356771595554    5.23033101316961    8.40181928913239
H        10.02353176126381    6.21952148960550    9.67925248498452
H        10.97291058268101    5.80509363742268    8.25164500713636
C         7.75034272175446    8.10641071379624    9.70888728391635
H         6.75276234933965    7.71451983801993    9.50473983690058
H         7.63270121954478    9.08202318672303   10.17580494000452
H         8.24689497798467    7.43517245903379   10.40253972828075
C         6.93731992243053   10.03298387918925    7.42784059138031
H         6.82338171295590   10.61409068043989    6.51728522055213
H         7.09439784312147   10.71895790491352    8.25877365993433
H         6.00849969517744    9.49265228153390    7.61185370643465

