57
CSD_code = TEJQAD | q = 1 | S = 0 | Stoichiometry = C24H27ClIrN4(1+) | MND = 8
Ir        4.10702856913330    2.27289161300050   12.98103529173953
Cl        4.12716345772833    2.14434647181343   15.34276702467436
C         2.44298350485477    3.37512748520002   13.27596823368575
C         1.98933478293371    4.68281212237993   13.46655569011748
C         2.75118428058285    5.92500615993586   13.52353277689223
C         3.87147481618611    5.96717280492432   14.35172326778625
H         4.13948420116655    5.08719658052916   14.91538517000706
C         4.60486974163812    7.13479873182154   14.45757414087324
H         5.46204549981932    7.17151645846810   15.11217403992602
C         4.23836873681350    8.25677625381546   13.73054522834710
H         4.81353690999265    9.16568155327841   13.81374799431018
C         3.13304676199135    8.21223040950469   12.89615874825645
H         2.85082068880415    9.08314991880728   12.32535645325807
C         2.38370057475938    7.05374571614395   12.79512426584477
H         1.53296227535633    7.02011245384004   12.13115629279304
N         1.29729221270434    2.64128971832079   13.44616612104150
C         1.35952301190075    1.25911833019779   13.43136417793728
C         0.27987850765621    0.43961786535666   13.72416301858778
H        -0.67482570859572    0.88295966816399   13.95407883892872
C         0.48888041032109   -0.92769865980625   13.72315968818614
H        -0.31894882765925   -1.60482885942526   13.94925906575835
C         1.76211826635732   -1.40958022601785   13.43976080666148
H         1.96548428871317   -2.46779269169876   13.44237426140422
C         2.77862616139841   -0.51692823628221   13.15729876017029
H         3.77755099898246   -0.86599933544725   12.94614671962126
N         2.59006401966523    0.80260603765297   13.13887207726289
N         0.23141299748587    3.36662367268879   13.69907904790547
N         0.65783663124595    4.59817601249625   13.70715025228369
C        -0.25875835338239    5.66358937024108   13.98795810810710
H         0.26265884185564    6.46703692619492   14.50579629664061
H        -1.06175824531731    5.27074173057504   14.60890791845781
H        -0.69058354492401    6.05178725477363   13.06416537798066
C         5.26443842871584    3.47394408778156   11.49264082752716
C         6.03640161533836    3.26844662492431   12.68259987496756
C         6.34173692634375    1.84920099848676   12.77809011459085
C         5.69978639828993    1.19521440663870   11.71833331101302
C         4.97862785898187    2.18575813183815   10.94099017639426
C         4.95136994450256    4.78870060406679   10.85802734481362
H         4.01852486363546    4.74964114700555   10.30166950791618
H         5.75031611070768    5.04394768678698   10.16068438323188
H         4.87964820421309    5.57958928984241   11.59920702789966
C         6.74824984367438    4.31065721733260   13.47747449940115
H         6.32641054439101    5.29638656905916   13.30762667491270
H         7.79869017156956    4.32646729016216   13.18313178191478
H         6.70379383675509    4.08432218100425   14.54044871217048
C         7.28450623181417    1.27318722698141   13.77741189294985
H         6.99930268899722    1.56456059295979   14.78722299995895
H         8.28961199806079    1.65303279289247   13.59197840114454
H         7.31026049903123    0.18835589303522   13.72500046040685
C         5.85597606527233   -0.23555436283321   11.32457021951263
H         6.08925501870635   -0.86421750185280   12.18145969006171
H         6.68238946628934   -0.32078386255430   10.61687488683874
H         4.96303328091305   -0.61728144464661   10.83315398947790
C         4.34209213070547    1.92541036869194    9.61628701501120
H         3.83080849934001    0.96532552921712    9.60048146910153
H         5.11076051720560    1.90776784688773    8.84210611767305
H         3.62675238634767    2.70353737484422    9.36272346567910

