39
CSD_code = TEJWUA | q = 0 | S = 0 | Stoichiometry = C18H14ClF5Ti | MND = 12
Ti        0.56101169254393   10.06405649494068    3.13198291746106
Cl        2.52689060416004   10.72777020995080    2.33102515346127
F         3.56173680137713    8.79198247253030    4.03351140561508
F         4.20962568445182    6.85081372226841    5.76445048501056
F         2.25986859543886    5.53191108373993    7.16523716219376
F        -0.36707155030413    6.22627235671437    6.77401455820065
F        -0.99840559134920    8.19355468772727    5.01840755573276
C         1.06561403590763   11.70054044245668    4.80048669795618
C         0.58259960159672   12.38457698549949    3.66274212649940
H         1.12284704863097   13.14248220110018    3.11001674070153
C        -0.75194804910718   11.99096081646366    3.43813447585325
H        -1.43148127018826   12.45435127170131    2.73517815873750
C        -1.11088349469477   11.07006887213280    4.44647040613768
H        -2.10110552105381   10.67949890735766    4.63073421273470
C         0.00588364716971   10.89498718927131    5.28743112380859
H         0.00885283398205   10.37149910813011    6.23463180604273
C         2.40094666228733   11.88213959052913    5.44951787741355
H         2.44875425466094   12.85579794533101    5.94044278395627
H         3.19976582718621   11.83964400316346    4.70860324910432
H         2.57246077105105   11.10944054183934    6.19838712408861
C         0.72843544975326    8.43912257003142    1.38111858950894
C         0.37509848971505    9.66683173039846    0.77998517445797
H         0.94354634476312   10.17688813635633    0.01322100654773
C        -0.88147340928119   10.06343054696674    1.27764820884659
H        -1.47311303614451   10.88377963592640    0.89271729873055
C        -1.33150568889853    9.06496966739271    2.17164624392066
H        -2.31363688357078    9.00387082958338    2.61781333699136
C        -0.34342760783435    8.06362474260963    2.23019841607684
H        -0.44938832716877    7.09734796200112    2.70527052491870
C         1.95077711744869    7.62677652770466    1.09132292934179
H         1.91894546953810    7.25307726090988    0.06643283557261
H         2.01585387551172    6.77534753397921    1.76840313525859
H         2.85122418261581    8.23402969606875    1.19815988644152
C         1.24976587877379    8.57316594720958    4.44953215112973
C         2.56159454521095    8.17844825062462    4.69222866733534
C         2.92217339131462    7.17183088660303    5.58865163864085
C         1.93802770229001    6.50001625810602    6.30169823226564
C         0.60648869541423    6.85407596109764    6.10106871451047
C         0.31125122680739    7.86321695358450    5.19617698879627

