71
CSD_code = TEJZAL | q = 1 | S = 0 | Stoichiometry = C35H28N5O2Ru(1+) | MND = 6
Ru        6.44122695505470   17.13129043631726    0.28259583655736
N         5.59414400710505   18.78806011462803    1.16087351025185
O         4.66996599063740   16.11870211860612    0.65310961331124
N         6.90817244625082   16.35468127296984    2.06046658969505
C         5.15582092967832   20.90372790134409    2.08143066525263
H         5.69438934723784   21.32308048018491    2.93539456589905
H         4.57826299156078   21.69640850693285    1.59757034709324
N         7.06791852376621   15.36156550469006   -0.31798945222729
N         8.11018451096286   18.05468326414548   -0.25826199681539
N         5.91396087984796   17.72680199084175   -1.51323796171037
C         7.05273796298628   21.38554402927764   -0.88660664388660
H         7.97773152364759   21.48848709815947   -0.33683594139655
C         6.93636778033515   21.93107237041553   -2.15340443128780
H         7.77242556393849   22.45681077941168   -2.58891128051500
C         5.74760080307642   21.81468062481932   -2.85281562113456
H         5.65395551431858   22.24805795272060   -3.83660647026400
C         4.67278497469156   21.15265377542625   -2.28240750850442
H         3.74087095630743   21.06865910314561   -2.82043104652737
C         4.78661496651611   20.60829272556694   -1.01635478930324
H         3.94447758354780   20.09814492785299   -0.56893055800342
C         5.97977509537389   20.71928117638808   -0.31135612543361
C         6.08069140492183   20.16105803926195    1.08751633423830
H         7.12915957306202   20.19328295685483    1.41505189297862
O         4.26186239947003   19.90780594006342    2.55093323652792
C         4.58353038868918   18.73619045774128    1.97682211877531
C         6.91640966257066   16.95042051072027    3.25271118537365
H         7.02588634165769   18.02814018157749    3.25109569899767
C         6.78444086609416   16.26253655113666    4.44252987746711
H         6.78197307013803   16.79576816015129    5.37877982247353
C         6.63587073735624   14.88095315002806    4.40169689928113
H         6.50045139266748   14.31447245123868    5.30882509321007
C         6.67774586086797   14.24654091783475    3.17574119762746
H         6.57707264131260   13.17561183501378    3.11837541384175
C         6.82683121809469   15.00298127117528    2.01263395158981
C         7.32077601787472   14.93982748525719   -1.55758108124695
H         7.42142785508541   15.70351370893057   -2.32040574613566
C         7.45409874466623   13.60668810083793   -1.88844518495281
H         7.65429010724336   13.32065889531633   -2.90793615674528
C         7.31069898466782   12.65039360100055   -0.88865502861287
H         7.38999370783120   11.59941409927055   -1.11544920911039
C         7.07603159410654   13.07647890154457    0.40320453202611
H         6.97774954645536   12.35778111535175    1.19963298457308
C         6.96509862113537   14.44179405041293    0.67164955022068
C         9.20777308674928   18.21016735023210    0.48759830865325
H         9.16090131515053   17.80978545833061    1.49360686413065
C        10.34947662904100   18.83653813367387    0.03154754746359
H        11.20664378792136   18.93479183171883    0.67746358072043
C        10.37255357634685   19.32944294704833   -1.26944039388460
H        11.24990965257671   19.82064757458477   -1.65798381729693
C         9.24464596288979   19.17549210793636   -2.05125565063580
H         9.22898246350673   19.54916561492860   -3.06130625887224
C         8.12089985193236   18.53881687666633   -1.52592664176271
C         4.72542991237419   17.49353108931117   -2.06555534457192
H         4.00465794735449   16.98842593729157   -1.43311877644060
C         4.42243331802844   17.85243521685146   -3.36437449799409
H         3.44709556655384   17.63919174521752   -3.77025648994317
C         5.39473737518337   18.48466308011560   -4.13095848662560
H         5.19168877134201   18.77501609015635   -5.14921075033179
C         6.63017401898191   18.73301255972337   -3.56374027661586
H         7.40216801842428   19.21949429304203   -4.13605247888163
C         6.86932237536757   18.34200944913449   -2.24713606158723
C         3.80359487522141   17.58952332282979    2.34843208400291
C         2.89943166190118   17.72447640446866    3.41851634203405
H         2.84572738403105   18.67805213684872    3.92025817508201
C         2.11056131856923   16.68078376699389    3.82487639025070
H         1.43059946575396   16.80039852637768    4.65291086201084
C         2.18785219504357   15.45904491573847    3.15149576393278
H         1.56474154176775   14.63467764895644    3.46502328080915
C         3.04757745184162   15.29808738403809    2.09860445122965
H         3.11310229737241   14.36004866867493    1.56690834843854
C         3.89593813596296   16.34418133455007    1.65855524323840

