37
CSD_code = TEKCOB | q = 0 | S = 0 | Stoichiometry = C14H14N2O5SZn | MND = 6
Zn        1.52541176759867    2.14155616912278    1.01729976448598
O         0.77582416836553    2.27861702325724    2.79314866462632
O        -0.42919737916026    3.32319676193543    4.33218861843846
S         1.20456700250526    4.66459707090647    0.97548354906231
O        -2.02494359734266    3.07092269780916   -0.64967292838177
O        -0.14534521525681    2.11466359509602    0.03669130259856
O         1.09320879841779    0.01835109753898    1.28553977452966
H         0.76974923763163    0.12679013885483    2.19044006740491
H         0.29097790445070    0.03898675116791    0.74586078268374
N         3.49716428607625    1.98291497786035    1.74968364605101
N         2.67469832031023    1.84055204381487   -0.73036578581997
C         0.22983073335008    3.29938455827288    3.31486162076023
C         0.47535830498853    4.68097569660228    2.63356456050416
H        -0.46250879870612    5.23322238004814    2.59237630935172
H         1.17680387896599    5.23446299821849    3.26089534499224
C        -0.26617555643473    4.53096945473368   -0.07141562813749
H         0.05042552912188    4.86075868512500   -1.06308025946762
H        -1.02239903248321    5.22176983844585    0.29915448763604
C        -0.88926456146512    3.10896965778735   -0.22736236166574
C         3.80673916900578    2.03832247177751    3.03192410830446
H         2.97099624159997    2.12493942603511    3.71049615098076
C         5.11592549847264    1.98494096907252    3.48613162403940
H         5.32935866592293    2.03056413012130    4.54160791819137
C         6.13048095652831    1.87197559868931    2.54983152337407
H         7.16436909721801    1.83045945945324    2.85834394945878
C         5.80163569195404    1.80897547861289    1.20581794087093
H         6.58126432603038    1.71732333399813    0.46788601591594
C         4.45970404648975    1.86348609972810    0.83340022271401
C         3.99717994723505    1.78530073798616   -0.56155560105251
C         4.85440513343168    1.65255563536518   -1.65247596540207
H         5.92279573272227    1.61378915697229   -1.51945197610065
C         4.31613848184424    1.56797237123697   -2.92583608561094
H         4.96381671878630    1.46425539241107   -3.78345834218697
C         2.94023514006687    1.61453031717655   -3.07890703565412
H         2.48130051827907    1.54471098516431   -4.05161471110362
C         2.15816928201736    1.75414171308511   -1.94231418147343
H         1.08019956146361    1.79509512651778   -1.99531708491912

