110
CSD_code = TEKDOE | q = 1 | S = 0 | Stoichiometry = C55H51OP2Ru(1+) | MND = 8
Ru       13.90929936225264    8.30499505054335    2.29481712810352
P        14.20893543229782    6.42320148362673    3.61852614680613
P        12.31166600042921    9.38359746376968    3.63213105844419
O        16.17275681597328    8.61024549857860    4.05900832498843
C        15.51499178663236    9.09984214300598    3.05541913540914
C        16.27247089246460   10.27863055189242    2.48725426963565
H        15.63167145296314   11.10673850982322    2.18884395992249
H        16.80792868078536    9.93427120195582    1.59695857133661
C        17.23658165049023   10.66265265486779    3.61344107745946
H        18.19200253501844   11.03176163639009    3.25030087486101
H        16.77941701733778   11.43653012663997    4.23205717645298
C        17.38756459352842    9.36356589735557    4.41329748463997
C        18.60550461480727    8.50800629777664    4.03724374812918
H        18.39018351652351    7.48960800160699    4.36665936078616
C        19.18416437489208    8.49549544562601    2.61036161699207
H        18.93830808051885    7.62387897909152    2.00972397021815
H        18.96797246915350    9.39310079186394    2.03718534375599
C        20.59356320785438    8.54127142646405    3.21824121019600
H        21.05824856728004    7.55989915445328    3.26678162044103
H        21.29049581195088    9.24186843762266    2.76565341912215
C        19.97791940041831    8.96463303490853    4.56017558959915
H        20.34221333201165    8.46287167550027    5.45267813173551
H        20.02671500018964   10.03989620584528    4.71844361959658
C        17.39048392209138    9.52478622146171    5.91925633282910
C        17.79898760576061   10.69977166810071    6.53633619985123
H        18.13051714056574   11.54398842144609    5.95094215737681
C        17.80240622049859   10.79765405742468    7.91778063109684
H        18.12493536697706   11.71562084071161    8.38548292402527
C        17.39781921348321    9.72731150723415    8.69566930532723
H        17.39659241119687    9.80987989690789    9.77162876530900
C        17.01016967816465    8.54648210513470    8.08574148775063
H        16.70856424434387    7.69945710790964    8.68325063768695
C        17.01726515554673    8.44212728023003    6.70738629133678
H        16.72802019621802    7.51645049703557    6.23430450778422
C        14.78454991856762    8.13944996486068    0.21997083491862
H        15.81864598136584    8.11084284931746   -0.09966034432237
C        13.96074027489737    7.00671022108123    0.44801505553662
H        14.26423359153227    5.97303147815867    0.34387582492030
C        12.62639030868941    7.45107063881643    0.61992161476276
H        11.75391381856059    6.81416053114230    0.64901632143359
C        12.62986847767144    8.85858046305321    0.48690418828781
H        11.75629526323032    9.49404162914605    0.42293565273019
C        13.95900270550707    9.29188341265450    0.24796023450843
H        14.24804685285693   10.28623175326018   -0.06015604181220
C        13.33931185154746    4.99306002268846    2.88963695014881
C        11.94678233422228    5.04305580620637    2.86567407548903
H        11.44450002776383    5.89338571460700    3.30326382877891
C        11.21742583168637    4.01419474928730    2.30257383882704
H        10.13858821733781    4.06356680248963    2.29486839391386
C        11.87189891427466    2.92408565813875    1.74963997675212
H        11.30510595890505    2.12026934794904    1.30557889449847
C        13.25509783746265    2.86777276241004    1.77105982899093
H        13.76777530098941    2.01823647954164    1.34543390702190
C        13.99070553746969    3.89555592227556    2.33767070538006
H        15.06958612227270    3.83631131685331    2.35052649082053
C        15.90282061301370    5.76076860783651    3.76419033406081
C        16.72045236643637    5.79483699347382    2.63754843027849
H        16.36193950586115    6.28279065034195    1.73934015539988
C        17.97287460528322    5.20915895030832    2.66284093991296
H        18.59039643859774    5.20775504577258    1.77628487899643
C        18.43549196878496    4.61599536672629    3.82732468087069
H        19.41629724054535    4.16649288895239    3.85132264952544
C        17.63580751093488    4.59940105322751    4.95795019887489
H        17.99552557136363    4.14092266560157    5.86675617834976
C        16.36819366631017    5.15617330239352    4.92676608328854
H        15.74077920710107    5.11623247529376    5.80536365272940
C        13.63519127776946    6.36429686048379    5.34636413413430
C        12.97136117373260    5.27369417597259    5.90091276148276
H        12.75009891147721    4.40414450661716    5.29965886647593
C        12.59574546782889    5.30400668611591    7.23290178955634
H        12.07906570548576    4.45735434678814    7.65950987016686
C        12.88300898072812    6.40799709663534    8.02040310745635
H        12.58443314324767    6.42264944199743    9.05764075698530
C        13.55688281093589    7.48982689962236    7.47542251069858
H        13.79026858195470    8.35347839854375    8.08058491825924
C        13.92827091029776    7.46615852693673    6.14363036115141
H        14.45358547674949    8.29996079764233    5.70442890332953
C        10.85747667461750    8.32598000485763    3.92844724132130
C        10.65625528558209    7.67630448632442    5.14409648647767
H        11.33208141969986    7.85129617214842    5.96709625107101
C         9.58768705570913    6.81060300453069    5.30099848250973
H         9.44082073849520    6.31490186943955    6.24856927335985
C         8.71310503239989    6.57985438957474    4.25187016956789
H         7.87990749831795    5.90593751539097    4.37927391991517
C         8.91020851838040    7.21799418359681    3.03703527016808
H         8.23059304276310    7.04358560276227    2.21617104119241
C         9.97916168821800    8.07923432638195    2.87270903793465
H        10.12904376079661    8.57283401794099    1.92237368377232
C        11.58655004164951   10.86955197194464    2.84195990216295
C        10.24397461381721   11.21410900457828    2.95183535415466
H         9.54873631113962   10.55866416645916    3.45567783444018
C         9.79048476569866   12.40100188017555    2.40261857899348
H         8.74495569182644   12.65810326298493    2.48101332089685
C        10.66780855065090   13.25832267362394    1.75978973816234
H        10.30636787139561   14.18082316267432    1.33247431805802
C        12.01182611612789   12.93241213245039    1.67228708883859
H        12.70121086118121   13.60383374310194    1.18235437967957
C        12.46625813331590   11.74589870447307    2.21474966138209
H        13.51337440757955   11.47674452551968    2.15689208344044
C        12.59636660627037   10.21673723111031    5.23583647972881
C        13.86806060553488   10.69388645064223    5.52801575792367
H        14.66697865792711   10.50321195169207    4.82676501556527
C        14.10827142878059   11.39380439502830    6.69543652374998
H        15.10558559885692   11.74050928481911    6.92222907230493
C        13.06632180746853   11.64215369980698    7.57359121245900
H        13.24885093650942   12.18264315540280    8.48963482104627
C        11.78653788377696   11.20897734631621    7.26681950140316
H        10.96903565393355   11.42211643880742    7.93886460415811
C        11.54535139829773   10.50627704751446    6.10003627413384
H        10.54095933141830   10.18570766389573    5.86613914746855

