95
CSD_code = TEKDUK | q = 1 | S = 0 | Stoichiometry = C45H45O2P2Ru(1+) | MND = 8
Ru        7.09412101371864    9.01479679746905    3.38984064914783
P         7.59013180006119   11.00872703293534    4.36294463895392
P         5.72669942464733    8.72260945348015    5.19265653251043
O         4.87449712742349   10.81906852812991    2.97870349689761
O         2.58212790750319   10.69098198323785    3.03348444424171
C         5.50169303695074    9.74863316109756    2.56918001259675
C         4.75719996542285    9.12159777111289    1.42592130740242
H         4.21499604209293    8.25857818366228    1.82822766694427
H         5.40751724795713    8.77990932621599    0.62181887774785
C         3.76536085905762   10.19903612284854    0.96885072260377
C         3.62993668118892   11.09645404036267    2.22981290712725
C         3.67258226188073   12.56115884070556    1.76559411085083
H         4.54101753320616   13.04216063626422    2.21614615332432
H         2.78437978851773   13.10486020363536    2.07860618583980
C         3.79304463070774   12.51523442980700    0.23808670360158
H         2.80806669755664   12.58492052814102   -0.22242806174605
H         4.40521178328761   13.33169887994918   -0.13971500911620
C         4.40483945038254   11.15114853102649   -0.06241965700692
H         5.48414756000049   11.18837588030931    0.09656121291042
H         4.21004373598472   10.82376439050398   -1.08223313337862
C         2.46323593658168    9.64134780480455    0.44190449041567
C         2.45452985205280    8.41954822338088   -0.22305569884600
H         3.36820140518986    7.85714318839623   -0.34133184400377
C         1.28506421752040    7.91027779841988   -0.75863785541291
H         1.30237420461747    6.95995440686230   -1.27081378923650
C         0.10093951172526    8.61633010461787   -0.64479084449168
H        -0.81195504621169    8.21981282610837   -1.06166731550520
C         0.10115097504616    9.83965968295860    0.00075109403091
H        -0.81440100341999   10.40522946304492    0.08741600103841
C         1.27158952123292   10.34997756272766    0.53404152887107
H         1.24308116570048   11.30493928695062    1.03210205998485
C         2.11181387826462   11.59135070141859    4.02128212956883
H         1.57276504465941   10.97848249541133    4.73996759529769
H         1.41902454841500   12.32301575853468    3.59545199345708
H         2.93227903113260   12.11567915280278    4.51688132861547
C         8.06255198216833    8.21690332043578    1.50860975816603
H         7.90109330971906    8.49553731183152    0.47510295684727
C         9.06367522361144    8.75160687042750    2.35513639236131
H         9.80350325992542    9.49066916735824    2.07421627703518
C         9.09248493130551    7.97632786692998    3.55084437686044
H         9.86950319934908    8.02673952518918    4.30138086074929
C         8.09764492104560    6.98284216265716    3.44131696420917
H         7.93665037948709    6.16925678414700    4.13730086459577
C         7.44363108178255    7.13619351398796    2.18671569384007
H         6.75399888039291    6.42918183365104    1.74638651224335
C         6.70112367314890   11.18603079773874    5.98332717015694
H         7.36479727657093   10.80092325647716    6.76212118290279
H         6.50152856182974   12.23863177295662    6.19748319359103
C         5.41041356787824   10.37473582253395    5.97076700600349
H         4.65649697491610   10.87114229805420    5.35534769319036
H         5.02422674325692   10.23814224776414    6.98616892611697
C         9.34592198342022   11.26305827346888    4.78656229986268
C         9.91475509226901   10.73252066221538    5.94176390442712
H         9.30789855113912   10.21192695979425    6.66835510698114
C        11.27085234187517   10.86647181871868    6.17908006648825
H        11.69762388331564   10.45763301048136    7.08276369027890
C        12.08009984896415   11.51775577204149    5.26314444809451
H        13.13784408420878   11.61848748184741    5.45052890225267
C        11.52559232996968   12.03630241467895    4.10459693038738
H        12.15060228152580   12.54283662447897    3.38472052986213
C        10.17016668884896   11.90729210513234    3.86459187819367
H         9.74580431258161   12.31655285681882    2.95832397313432
C         7.25712659436860   12.52323105349926    3.40818302873241
C         7.06122502899054   13.77565240164113    3.97774690412454
H         7.05337796501865   13.89850753918652    5.05091242052918
C         6.89191940700575   14.88432984851670    3.16541779308911
H         6.73230950408258   15.85424630630596    3.61160936738845
C         6.93967690472258   14.75757002557783    1.78670151104843
H         6.81306061573294   15.62721327140524    1.16043789672828
C         7.16066473723324   13.51495230944449    1.21282056190899
H         7.21666309996914   13.41698449303171    0.13867236405018
C         7.31436979953544   12.40454587673196    2.02146179339413
H         7.48443405133378   11.42130596093321    1.59213404755126
C         6.31690730016053    7.74805630395841    6.61165305072578
C         5.43316011547892    7.08538301264830    7.45804919615660
H         4.37165009006028    7.10672893676730    7.25633253972257
C         5.92120149073628    6.39294792188347    8.55179588378869
H         5.23583097016707    5.87617706567075    9.20628312121052
C         7.28285714812522    6.35826246162535    8.80799409075711
H         7.65675662694002    5.81391793825658    9.66139701131349
C         8.16515608456055    7.01583107090547    7.96558823968888
H         9.22670822123359    6.98462626915252    8.16143815144830
C         7.68290005238014    7.70504732724784    6.86861072625942
H         8.35941676241650    8.21017279416060    6.19078992458601
C         4.07294893184168    8.04957402825773    4.87419242866445
C         2.89979517469362    8.54445478832198    5.43190033542717
H         2.93380803203676    9.35644616851328    6.14291050210461
C         1.68342234987945    7.98473096604237    5.08074892201293
H         0.77171740905549    8.37003866041466    5.51239976475150
C         1.62774615621272    6.93272797196802    4.18224749752931
H         0.67473044655746    6.50979997102629    3.90507520544753
C         2.79638121839796    6.41758292746099    3.64428238499911
H         2.75504732322765    5.58760726388472    2.95477634367681
C         4.01305592622016    6.97425204743647    3.99011555041142
H         4.93898130705338    6.58202930898183    3.58382324668404

