65
CSD_code = TEKHUP | q = 0 | S = 0 | Stoichiometry = C24H32N2O6Zn | MND = 4
Zn        5.05813556614970   11.83708603960089    1.72822538162457
O         5.39833317199984   13.44262898822037    2.50216481685427
O         6.71647397209399   15.48831500049841    3.34148503623845
O         0.42112238419565    8.74571280547801    1.35832284918192
N         3.48913671402383   12.41569586652093    0.68023338504724
C         7.49808496718897   16.55710894677710    3.80435784201365
H         6.92050272140785   17.23351894917739    4.44461623376128
H         7.93357003577865   17.12608732603088    2.97597979489503
H         8.29991981982770   16.10396986097814    4.38441907808112
C         5.66020309340892   15.75962114797117    2.52809322624557
C         5.25026666248896   17.00936097824381    2.13858856337625
H         5.76023546357697   17.89370207596066    2.48836201511283
C         4.15243726755949   17.16037391206098    1.27775238361107
H         3.84058547824176   18.15392289263160    0.99428180246972
C         3.49774743910716   16.06345571795143    0.80245326064085
H         2.66127118062846   16.17811050376245    0.12778875104192
C         3.89808613386606   14.75356321173285    1.16128093201531
C         4.97969961620152   14.57747601035519    2.06573262447260
C         3.19448956544666   13.66601703818656    0.57911618848965
H         2.33264515124854   13.94440599693354   -0.03990292289196
C         2.64936296112865   11.44258571962027    0.02346112725580
H         3.30284006107278   10.75042688172137   -0.51799992905340
H         1.97804265362694   11.93081363533580   -0.69777513946184
C         1.83016565290014   10.64650754703107    1.04328586666737
H         2.47341701585181   10.33604357526976    1.86765800258728
H         1.03407325466831   11.26921351331775    1.45308535925393
C         1.21768842551374    9.40587584158366    0.40449961819364
H         0.60188554032577    9.68341428033398   -0.46925008871550
H         2.01760615849551    8.73375398341157    0.05097562567088
C        -0.13261852019682    7.55187507371959    0.87746737517080
H         0.64853493213989    6.84193062113873    0.57336088814993
H        -0.78907213268611    7.73257128823729    0.01569992554846
H        -0.71484303597804    7.12542226133600    1.69185234275056
O         4.71804213553884   10.23147021250874    2.50203543231431
O         3.40030097909031    8.18558068840512    3.34143120590682
O         9.69466685337743   14.92893656544048    1.35856699520443
N         6.62719300817680   11.25865478115260    0.68019626007710
C         2.61899298280794    7.11664756398852    3.80449217590517
H         3.19680929137388    6.44042923314763    4.44474645379044
H         2.18355449504804    6.54747490200725    2.97621479195028
H         1.81711497518522    7.56965371675135    4.38460559302434
C         4.45673497493458    7.91442361577045    2.52819130988040
C         4.86699103882358    6.66473600039584    2.13885161706168
H         4.35714430683404    5.78031702373451    2.48860499598799
C         5.96496896515422    6.51388897294822    1.27817818208480
H         6.27708506958631    5.52038194299968    0.99484289182734
C         6.61948046954147    7.61091002000376    0.80286671886538
H         7.45609147518234    7.49637068663127    0.12834848187341
C         6.21877912342133    8.92074772707807    1.16148398066491
C         5.13700142247034    9.09667859251790    2.06577048374564
C         6.92216905867016   10.00839698336859    0.57926032438629
H         7.78410700948280    9.73014463974337   -0.03968918495450
C         7.46679193412863   12.23189669197586    0.02338677375198
H         6.81318395089628   12.92405991891195   -0.51790714108388
H         8.13804559350337   11.74379317572437   -0.69799453207831
C         8.28607379506901   13.02790459222294    1.04319729237800
H         7.64289283144006   13.33829028309730    1.86765344375375
H         9.08219752266934   12.40516190934475    1.45288099433445
C         8.89849102139808   14.26861898759091    0.40452185328232
H         9.51457966871545   13.99117751385092   -0.46905546674916
H         8.09854366588119   14.94059161793581    0.05077261477291
C        10.24846911677203   16.12279159403934    0.87783603617622
H         9.46736529330390   16.83259326353977    0.57325991968413
H        10.90537796071331   15.94208821720569    0.01641569044659
H        10.83023063949727   16.54942087485116    1.69246159544448

