39
CSD_code = TEKKAX | q = 1 | S = 0 | Stoichiometry = C12H18AgN6O2(1+) | MND = 2
C         2.41270386874920    3.10408984749288   10.08094483285243
C         3.75658696972219    3.34746660354223   10.36711491173132
C         3.83482340388382    3.28830073932479   11.74043082704916
C         2.18971170836689    2.91226180770811   13.57583922116764
C         1.99974047262588    4.29030214650714   14.22057803146019
C         0.79376817104759    5.02590001239873   13.65689195741640
C        -3.24406568161959    2.17293032585434    9.81797477052304
C        -4.60854794064103    1.93133187720085    9.98219988171167
C        -4.82702626214457    2.08102418357443   11.33335893334737
C        -3.38005175754390    2.59380111985202   13.29733478982644
C        -3.25531301426676    1.26086617413266   14.04463384484295
C        -1.99551590415671    0.50221376113825   13.65665373748386
N         1.72867359805128    2.91238252175435   11.20013136984641
N         2.60116775030244    3.02402089403344   12.20339738361768
N         0.90023148471133    6.36134296139154   13.63038302580308
N        -2.67888175413622    2.44689123048509   10.98536909210039
N        -3.64862018821242    2.39104424286330   11.90020289690611
N        -2.09546597760851   -0.83320247311315   13.70361522045767
O        -0.22028105390093    4.45618561964522   13.28300998114880
O        -0.94942625160715    1.05638429278124   13.35468477620142
Ag       -0.50506933576000    2.70477318001550   11.65307304301072
H         1.92696851629104    3.05435885439785    9.12626818185656
H         4.54924974338245    3.53221156165648    9.67337952301571
H         4.67406812448792    3.40362158650144   12.39628088813833
H         0.12034808481100    6.90893141252828   13.30097974823241
H         1.71209735591529    6.84896434363108   13.96704282901409
H         2.94540026435123    2.34901103470399   14.12791592563213
H         1.24141019339068    2.36306184642172   13.59469898598575
H         1.82531523139742    4.15177948567834   15.28998771275590
H         2.89913676585936    4.89440313451802   14.09502273288622
H        -2.66321247685133    2.16538005460147    8.91661764189449
H        -1.28418086696426   -1.39321776352546   13.49236720538185
H        -2.93759131017328   -1.30485734282858   13.98383285200245
H        -5.32544848600663    1.69023020869205    9.22619603644882
H        -5.72877590295642    1.99855319142649   11.90596514702249
H        -4.18905297470093    3.18510238039761   13.73205174066588
H        -2.43936937153550    3.15069766928078   13.37769891290480
H        -3.19400307015941    1.46708017911229   15.11557837860618
H        -4.13530212641462    0.64237709421357   13.86389302905625

