41
CSD_code = TEKPOR | q = 0 | S = 0 | Stoichiometry = C18H19ClN2Ru | MND = 9
Ru        4.78410341129632    8.76678303654551   11.73868244453307
Cl        6.79697248532589    7.64673413317009   11.20901963380308
N         5.99044214007210    9.21823728821948   14.34841483244623
N         5.28179359757325    7.18288786802938   14.37669297376179
C         5.92121777566555   10.36536104704645   12.32825982081319
C         6.29646176845737   11.44395720835966   11.54172545911318
H         6.06573139276249   11.45664788360875   10.48498408117876
C         6.99771438167735   12.51432661677322   12.08060759642240
H         7.27512096716868   13.34345549215491   11.44524925162574
C         7.35120434539694   12.52892132031457   13.41875275926327
H         7.89455719751482   13.36719724676022   13.82853054728666
C         7.02564743361385   11.45458585455073   14.22915250596515
H         7.31848334563715   11.43972610231445   15.26869355882270
C         6.32760329363897   10.39746550289738   13.67172836103292
C         6.35753903640438    8.69665447193437   15.55696603805152
H         6.89828769860722    9.24964631280073   16.29651628873841
C         5.91431503242465    7.41690945077485   15.57236880400552
H         6.00016843488379    6.67147279823117   16.33516489777506
C         5.31805256816704    8.29563519204421   13.61895279513862
C         4.81979879989823    5.89068055890178   13.91481570915717
H         4.35438297694347    6.07573496898179   12.94007447854156
C         6.01895737902326    4.96967308853323   13.70118311619957
H         6.70083803570382    5.43374142655707   12.99115497314597
H         5.68862518190977    4.01635100643795   13.29848100423563
H         6.54481934293186    4.79139088754794   14.63606046287194
C         3.79119698759228    5.30356436719099   14.87700825932495
H         4.24863442854798    5.05697166152586   15.83196874344653
H         3.37086513927387    4.39406672407662   14.45657827256404
H         2.98440784332143    6.01254220797560   15.05104808312739
C         3.56954789499773    7.46423998086742   10.20591493697094
H         3.75311458295300    6.50910668329593    9.72687083188683
C         4.04132012620855    8.65675692171203    9.58661088729741
H         4.57089173276704    8.58935558955361    8.64225276963412
C         3.69558030169527    9.90424977225894   10.11115911229734
H         3.92561649301724   10.81036547093435    9.56345850991594
C         2.99281223408835    9.98611984666721   11.34074353844730
H         2.68072493282068   10.95073343045567   11.72634894473441
C         2.59132545809924    8.79518954174998   11.99040186658901
H         1.96385914765403    8.85196859500950   12.87526186119823
C         2.80846542867723    7.53368852731828   11.36639718081918
H         2.35879924558588    6.64140391591787   11.78594380781701

