61
CSD_code = TEKPIL | q = 1 | S = 0 | Stoichiometry = C21H32N5O2Zn(1+) | MND = 6
Zn        7.31120692765895    8.31828844347121    2.46892949131352
C         8.27421861251631    8.80613270518365    4.55809495863000
C         8.86477790645785    9.15570363903160    5.84616268046500
C         8.23212372602712    8.87764757976447    7.08207399190747
N         7.01931315491078    8.25813577443891    7.09856415983218
H         6.76703417139751    7.82277148799437    6.21612413953033
C         6.06649308418511    8.21607902758558    8.11159326463360
C         5.91777495533268    9.23450928488642    9.05170085177827
H         6.55595114149836   10.10374592766227    9.01080454546928
C         4.93104684419851    9.14786223759625   10.01643862709641
H         4.82777647792142    9.94209295473071   10.74037513542089
C         4.07177632875581    8.06261899537359   10.05196990997548
H         3.30622537004611    8.00034270698436   10.80930153270641
C         4.19326341552871    7.06444441504513    9.09890306871064
H         3.51906382056773    6.22112600750429    9.10971348573409
C         5.17819612811836    7.14023175495140    8.13386502498848
H         5.27592884176248    6.36137450017712    7.39034891978546
C         8.91232601927347    9.21681028655499    8.26154955213767
H         8.47547115580670    8.94677598387904    9.20976934809364
C        10.13788237025231    9.83846091767573    8.22200692683890
H        10.64238147374367   10.07646603973847    9.14620653487311
C        10.73877534536122   10.15196800078565    7.00492386773215
H        11.69661419960578   10.64650474281594    6.98271358830082
C        10.10670974919026    9.80275483818138    5.83638327000165
H        10.55802275028002   10.00907107088118    4.87779232569377
N         8.57503981453885    6.58238824486137    2.11326901889791
H         8.70271909993627    6.20114960021483    3.04922012466984
H         8.19295103081827    5.82766945604664    1.54580146437578
C         9.90403961049754    6.92737942330444    1.57835723493202
H        10.53775559934851    6.03434513964001    1.52159601190388
H        10.36434913676450    7.63796946192490    2.26629312210110
C         9.79790075390457    7.56001291721802    0.19461927741621
H         9.14933984343689    6.95306025664936   -0.44242717176582
H        10.79171086495497    7.56101088565153   -0.25371102294901
C         9.30082965320465    9.00040432239810    0.23083713700501
H         9.83493581623550    9.54231665458963    1.01295393673716
H         9.51162245329816    9.48142043144921   -0.73353192956146
N         7.86752593987813    9.09510853024357    0.53341650467547
C         7.42395008621082   10.49184379788031    0.52837418265690
H         7.44315445194841   10.91864309541048   -0.48144060578866
H         8.11655293090426   11.05692168682245    1.15672675516335
C         6.02522432772686   10.59410320631175    1.12057944897971
H         5.68460525509265   11.63685600623823    1.09508015655149
H         5.33004152662682    9.99219938705166    0.53106784087611
N         6.06620186107406   10.07300568977469    2.48627652277912
C         4.76452928148000   10.06362500422351    3.16273959543203
H         4.25603284796735   11.02683548355895    3.02007606322201
H         4.95067877253694    9.92840243828142    4.23020949862672
C         3.84678638269741    8.94041559764285    2.68813120324513
H         2.89262289739828    9.06056099127542    3.20222002949780
H         3.65097476979562    9.02854447717881    1.61782468113079
C         4.38265916648933    7.54850634745116    3.00113753431616
H         4.76647293735913    7.52404218853761    4.02143595928948
H         3.56373851654403    6.82427012238136    2.91640117656193
N         5.49086839129609    7.17160306684738    2.10310395018674
H         5.14358347815320    7.18866713719854    1.14681391193311
H         5.72344854585394    6.20367332573104    2.30745058842458
H         7.36769043679695    8.60665197047209   -0.20787608687866
H         6.66946546111630   10.70104202719978    3.01711991049934
O         7.28199001033924    8.01049748085289    4.45620639099209
O         8.73925407724961    9.29183482473316    3.48873838199295

