45
CSD_code = TEKQAE | q = 0 | S = 0 | Stoichiometry = C22H19ClN2Ru | MND = 9
Ru        3.24210056830210    1.97507021394216    1.70455596744346
Cl        2.86545754058813    1.75803447824284   -0.61211145720671
N         0.47204955317425    1.11366146483687    1.78951473736696
N         0.37291960166686    3.25852669151609    1.94960738261566
C         1.24541471779480    2.22511953411599    1.87969166890467
C        -0.85411700083788    1.43864286049187    1.79362676685868
H        -1.63854151708647    0.71454930954458    1.72336680751565
C        -0.91519823285513    2.78746234411923    1.89043353325320
H        -1.76253491041059    3.44148764781374    1.92591377185880
C         1.14468010099151   -0.11049192946668    1.70538851867777
C         0.52170531344905   -1.34551638984383    1.63955557915442
H        -0.55533865500957   -1.42547559259288    1.64223566414657
C         1.31198447600582   -2.47850305850026    1.55613808085215
H         0.85170459117981   -3.45372354383876    1.50219955308775
C         2.69040625210300   -2.35549838921747    1.52523541476049
H         3.30472088801924   -3.24108224602334    1.44502298698095
C         3.29445659191206   -1.10706452920698    1.58167193733525
H         4.37285647474365   -1.05452112875418    1.52134540035233
C         2.53866154816400    0.05017007943709    1.69517194640553
C         0.70572000898942    4.65466885752110    2.06137466416961
H         1.29874515515678    4.80907490446854    2.97050102718981
H        -0.23118546723257    5.21133431581510    2.17743041306154
C         1.46299885497973    5.19591312885395    0.86870655570602
C         1.41753788487996    4.56882453695343   -0.36704846703362
H         0.83658195326992    3.67077367157593   -0.50634952060722
C         2.13760512469530    5.08074693416666   -1.43363330388704
H         2.11480365868924    4.56382086191794   -2.37969369662977
C         2.89073143183134    6.23040232371126   -1.27974429094777
H         3.45803605394381    6.62450506210118   -2.11011814554645
C         2.91373404304785    6.87963710600706   -0.05586143698227
H         3.49109816555525    7.78449264296857    0.06942946992851
C         2.20339764679090    6.36417201988417    1.01229990352337
H         2.22015261892618    6.87442057746550    1.96690258712626
C         3.90510996902959    3.05603228747374    3.51164748635743
H         3.38141622882623    3.36466269238159    4.41241838856788
C         4.15411578778202    4.00546538269711    2.48274371630827
H         3.80182218246178    5.02336933440551    2.58362349074655
C         4.86928619470520    3.62630323802310    1.35425528421635
H         5.04418640318161    4.33792585976181    0.55558642557431
C         5.45965016500896    2.33181024539784    1.28738391120926
H         6.08340831714754    2.07699576457495    0.43700545743903
C         5.35445103374134    1.45332047155774    2.36607839150880
H         5.92199986367555    0.53030427249841    2.37563844972844
C         4.53345432149218    1.78623458934170    3.47366292512445
H         4.48405449753012    1.12664110186069    4.33349605378394

