84
CSD_code = TEKWAJ | q = 0 | S = 0 | Stoichiometry = C40H39P3PtSi | MND = 4
Pt        8.40286320126283    1.80470075247874   14.14626958444039
P         7.34077754408530    1.46044391117523   16.20020002654159
C         6.44682250790524    1.79521522511437   14.86460781720907
Si        4.62846413751078    2.00595467205522   14.47567654854428
C         3.65229377584799    0.86189145267662   15.65318639362990
H         3.92373246368565   -0.17936871685955   15.50965460646629
H         2.58266502690649    0.95034423544946   15.48917581421924
H         3.85183815734203    1.11097723265789   16.69042892835076
C         4.10979069329232    3.81570818957435   14.79709559298268
H         4.50856019030352    4.17943203945344   15.73886303336827
H         3.02823775435042    3.90343643471315   14.84016303054279
H         4.46472234036366    4.47211731575123   14.00920993239653
C         4.17948667133882    1.54772281562152   12.67800176379351
H         4.84513808001084    2.02776665488086   11.96752912400670
H         3.16733379342724    1.86551811516437   12.44480294742706
H         4.23584388394249    0.47705025579291   12.50889095157067
P        10.68902477092093    1.64128821097858   14.31543264515304
P         8.15570699934222    2.25804246996865   11.86260651242994
C        11.53388283548772    1.60993977100233   15.93346413879643
C        11.11724646083908    0.61880667988706   16.81840783211191
H        10.32594773758633   -0.05528500231941   16.51335717640107
C        11.69601719832397    0.50848330307735   18.06653572897804
H        11.37099334178568   -0.26395272171105   18.74809973445814
C        12.69028069357226    1.39739535663098   18.44637741390570
H        13.14261386119538    1.31684801364736   19.42397374816338
C        13.09784738949119    2.39347572726609   17.57564128547997
H        13.86764658254354    3.09067893567694   17.87455420106349
C        12.52455058171716    2.50326331845483   16.32011946135136
H        12.84552336717223    3.28403934309112   15.64429591532620
C        11.45502929240166    0.17589661313455   13.55305836140607
C        10.61914919185020   -0.67338750949395   12.83809002218539
H         9.56034668489292   -0.43531089252336   12.78178557143698
C        11.12645797423283   -1.80372581549230   12.22424445945892
H        10.47148345301560   -2.45771158479775   11.66634715106878
C        12.47663591529628   -2.09438281972629   12.33135256068140
H        12.87968477707834   -2.97432672219165   11.85146479031417
C        13.31033010059225   -1.26628636562513   13.06724222740896
H        14.35957094163372   -1.50653368863459   13.16323832726979
C        12.80390005167376   -0.13674212490577   13.68403830191726
H        13.44855185522751    0.49741666547351   14.27764629981790
C        11.48309710090643    3.06901517570456   13.51289528737839
C        10.85050271963544    4.28372990166733   13.76913371775844
H         9.97022739521724    4.28386952351275   14.40727482212971
C        11.33448366802199    5.45669072661699   13.22652805075785
H        10.84301092364635    6.39637199208811   13.43363568391218
C        12.45405222245673    5.42177728323428   12.40970410313858
H        12.83960181147711    6.33581560365371   11.98224819326269
C        13.07247652340800    4.21470687354353   12.13236817029891
H        13.93691400017075    4.18882544355155   11.48465521107556
C        12.59085730475628    3.03717532201162   12.67827597669799
H        13.07210084349858    2.09779005517289   12.44770906126961
C         9.54078995751491    2.73525061211768   10.77337387185724
C         9.78148379614769    4.05876684086916   10.42092223442500
H         9.10645852079558    4.83544856627188   10.75180632216820
C        10.87641239418050    4.38349936386266    9.64130754493025
H        11.04821722651320    5.41340582539717    9.36370512686000
C        11.74904635555714    3.39671564227222    9.21595524070051
H        12.60013509632757    3.65348630138524    8.60251588115935
C        11.52942290887385    2.07905941536623    9.58417465338748
H        12.21223816002770    1.30484833576474    9.26448490023262
C        10.43639090508007    1.75076219613130   10.36106469671867
H        10.26685659747556    0.72197518435203   10.64786501515188
C         7.00218326310725    3.63056632314321   11.53367020666597
C         6.22947729205747    3.76225028332021   10.38668525605699
H         6.25580156618718    2.99851781126661    9.62293691964817
C         5.41047971384194    4.86666801185220   10.23280665008235
H         4.80303074416234    4.96367947732563    9.34444076826160
C         5.36829161635135    5.84891488376553   11.20917581586248
H         4.73129740125203    6.71143230531416   11.07820336333764
C         6.13359589438341    5.71903414264808   12.35708662563739
H         6.09576049681665    6.48029162433371   13.12307199869900
C         6.93820688711209    4.60731516519897   12.52150391058158
H         7.51831888387757    4.46889819984424   13.42935760161051
C         7.47787000846068    0.83796231865791   10.94586751388112
C         6.93430629268825   -0.18937053048557   11.70978896034146
H         6.93964962309864   -0.09360150932894   12.79327092807157
C         6.39929810282948   -1.30901412526207   11.10058035806125
H         5.97903265346337   -2.10327991318774   11.70036327944496
C         6.40714045095834   -1.40999936257612    9.71915665918157
H         5.98839245780922   -2.28137895193772    9.23715193345326
C         6.96253551056984   -0.39739520415511    8.95277356697082
H         6.97801042113747   -0.48351238485801    7.87565892767591
C         7.50237175596417    0.72206757524400    9.55973819995020
H         7.95848025272330    1.49732792878582    8.95887682918146

