88
CSD_code = TEKXOY | q = 0 | S = 0 | Stoichiometry = C44H37CuINP2S2 | MND = 4
C         9.27358888938126    0.15687676625010   11.05996486513239
C        11.07469939905027   -0.21731562491400   12.43934524261560
C        10.11540169743702    0.08055951905629   13.41216033165069
C        10.42384793380662    0.09401215893941   14.75834099487461
C        11.72711527313219   -0.18643664074005   15.12727125965020
C        12.69088883575118   -0.47311364772430   14.16814905349401
C        12.38014524281583   -0.49647371412411   12.82197543430264
C        11.39244497750333   -0.46513028833311   10.00676149006509
C         6.23460727126232    3.75549537674142   11.45509158081786
C         5.35360633411602    4.80960161419542   11.24488343572555
C         4.03062039566033    4.54804468652464   10.93717250503714
C         3.57795163577277    3.24308632113123   10.84233025764953
C         4.45581675002514    2.18931835995342   11.04077916716279
C         5.78083308377869    2.44338231646695   11.33360661292509
C         8.09358482133226    3.55249900592396   13.61031409249346
C         9.37109560330874    3.52640073833969   14.16848245930205
C         9.54147084038283    3.20792637194931   15.50149450653177
C         8.43870395183591    2.89884951252751   16.28265620751171
C         7.16967575063222    2.90983310084050   15.72723780071826
C         6.99095459115214    3.23513489994865   14.39437113322981
C         8.21679339029140    5.77145249485040   11.84341209179605
C         8.16353599333314    6.39308057006247   10.59635465055535
C         8.39471076749693    7.74846072784684   10.47618501127190
C         8.69254557715820    8.49710955155116   11.60433992313936
C         8.75312313565567    7.88474216438006   12.84496796894173
C         8.51953686450214    6.52615319714118   12.97032087578337
C         9.81640170811501    4.99927655160458    7.50152230674202
C         9.75322435162403    5.20727754975776    6.12596037473992
C        10.42436210367800    6.27368020861094    5.56042560893935
C        11.16600835847517    7.13289925052189    6.35805444620621
C        11.24045795258931    6.92269280272942    7.72399754525092
C        10.56857000033645    5.85636199956493    8.29512405012813
C         9.47856076235119    2.27444963338196    7.13225487788777
C         8.66717089691338    1.66364513528443    6.18568620525682
C         9.18556843326677    0.65944316192926    5.38711093259021
C        10.50445882612557    0.26156842977981    5.52633999755932
C        11.31746684192143    0.87303875484166    6.46759769185289
C        10.80614586404230    1.87474069612567    7.26887006418509
C         7.21282831656314    3.88779698075177    7.85155867908201
C         6.73589620251952    5.12947127837424    7.44252668697461
C         5.38111182642685    5.31362233910944    7.23288188800686
C         4.49543578921528    4.26717982863847    7.42638887050589
C         4.96418737591184    3.03282773436006    7.84644437022640
C         6.31314545741999    2.84685232675103    8.07614665333976
I        11.99496808073909    3.11005709908412   11.10775956430404
Cu        9.60881854672634    3.35524215668854   10.40566720334171
S         8.41066999061752    0.30827451212045    9.66932847190370
S         8.57518499075254    0.41272641312385   12.66040927545297
N        10.57244061517634   -0.18695651236207   11.15680546236842
P         8.95675154829902    3.59034703208385    8.27788570120922
P         8.00171781790680    3.96539540467334   11.83956173029895
H        11.75865388028586   -1.49195631840064   10.05204587631774
H        12.23562918286341    0.22606408242028    9.98328831189840
H        10.79134841109891   -0.33202567952409    9.10812977779458
H        13.13612852221651   -0.70554538121373   12.08414634793289
H        13.70384556780603   -0.67779725249808   14.47721298819019
H        11.99634593520462   -0.17679346630225   16.17191908927486
H         9.66450000108828    0.32405302774991   15.48820998431857
H         6.68162429180152    1.89257980783600    8.42720123073934
H         4.27612089754221    2.21520869215575    8.00178679089501
H         3.43943410062019    4.41461300189019    7.25419530025704
H         5.01691385741732    6.27961451192816    6.91353233530444
H         7.42233214211305    5.95015183150038    7.27970411695371
H         9.17718381770626    4.53065482176252    5.50847420017347
H        10.37320756916419    6.43573945012856    4.49340118360430
H        11.69083560035840    7.96384430420298    5.91004909524658
H        11.82485084853076    7.58357850001117    8.34674383617486
H        10.63103076680601    5.68734982701355    9.36221235651409
H         7.63530525928103    1.96477660282533    6.07215662478151
H         8.55232755082959    0.18313711962314    4.65242334036461
H        10.89876172175770   -0.52733568041083    4.90271146721254
H        12.34673223505689    0.56494380007936    6.58075440568728
H        11.43158763478153    2.35448145034976    8.01102981078662
H         5.69613648388337    5.83167891774767   11.32686588950884
H         3.34855155711799    5.37037336520117   10.77606079434138
H         2.54150344446734    3.04754921118322   10.60907134842204
H         4.10995377616239    1.16936471224020   10.95935129010900
H         6.47428995427429    1.62442245742387   11.47228420223946
H         7.93246475606920    5.79723310511936    9.71947872109054
H         8.35392754996228    8.21848477188739    9.50401959634137
H         8.88202333690708    9.55640238521442   11.51444547858758
H         8.98859756288060    8.46761498603111   13.72338505228190
H         8.57607321831974    6.05465055515377   13.94106118506374
H        10.23048150459052    3.75508601164528   13.55260957252752
H        10.53436922636612    3.19226682588284   15.92596619081464
H         8.56875292489080    2.64501634148080   17.32480924208415
H         6.31123539146948    2.66481192217130   16.33604118175198
H         5.99868785413095    3.24294707220203   13.96594417365847

