45
CSD_code = TEKZAK | q = 0 | S = 0 | Stoichiometry = C18H22N2NiO2 | MND = 4
Ni        4.64971171517082    2.40332964366353    3.86789428598625
O         5.42343599801173    3.40222338737634    5.18772021693293
O         3.84757902160702    1.45034145874337    2.54676617528734
N         5.85565225888803    1.04012665393299    4.31843666511386
N         3.38085590961018    3.95209098685369    3.45565515948708
C         6.38940351132836    2.76372832425335    5.79415765319011
C         7.13873446856554    3.31639045812091    6.84085621808804
C         8.14160537397568    2.57633921360780    7.42730782101238
C         8.43921981268252    1.27918648343377    7.00917454658268
C         7.70739641457969    0.71859031158121    5.97593391803666
C         6.68904830366475    1.44669664153386    5.36719057026670
C         9.53959417034437    0.49087331048146    7.65935593034995
C         5.93515386214436   -0.13105023446559    3.75664929518526
C         5.11223925429237   -0.58459614210285    2.69271266168211
C         5.30003457739040   -1.87881815298299    2.17378362074847
C         4.52841178568687   -2.35810700912200    1.14913256979185
C         3.52964155315028   -1.54608981007368    0.60322250878002
C         3.31804695055331   -0.28078073346968    1.08188250849376
C         4.09434091948554    0.25138466851950    2.13894016307731
C         4.07842953470551    5.13829178011137    2.95420739619712
C         5.06719831462291    4.72768684737535    1.87221124851468
C         2.46816982386771    4.24691187183103    4.56296956893827
C         1.85590666320527    2.95126073330978    5.07604100549559
H         6.91690867943776    4.31911103205265    7.17236217610267
H         8.71435012666449    3.01214634624714    8.23400465787606
H         7.94576944574808   -0.28643912167308    5.65902706763782
H         6.07520765314982   -2.49756846996095    2.60470763475973
H         4.68610099962802   -3.35344995069204    0.76254584615182
H         2.91928958819929   -1.92161861672939   -0.20560559564995
H         2.54827637402351    0.35089014247834    0.66337611910541
H         9.97837543600108    1.04688363725957    8.48372275386256
H         9.15930291432463   -0.45510800982406    8.04384987113763
H        10.32609684678808    0.26567655663881    6.93895147148760
H         4.61836068990526    5.58408188961480    3.79327409329608
H         3.35979137329272    5.87419303583085    2.56407688338007
H         5.69869577720388    5.56413828466852    1.58600756075878
H         5.70433277491826    3.92374641605065    2.26720719473745
H         4.54902412792213    4.35781542786602    0.98969596440086
H         1.68228823071242    4.94644496398877    4.24174289764482
H         3.05290552349906    4.71541048517873    5.35835913980885
H         1.29164270655822    3.12346414983917    5.98824605298175
H         1.19733868213018    2.50868390127495    4.33150516217378
H         2.66757993962097    2.24201527628715    5.29203646794569
H         6.68279552626989   -0.83802029196710    4.11074506458576
H         2.82865638646773    3.56149222304554    2.68645980857187

