45
CSD_code = TELBER | q = 0 | S = 0 | Stoichiometry = C22H18N2NiS2 | MND = 4
Ni       -0.00003761456273    7.41044560475267    2.87621645833842
S         0.60133151708827    9.00544476726883    1.56623212640276
N         0.72616748026897    6.02019262635623    1.75903500488415
C         0.34243577241543    4.77174976715588    2.26007084256064
C         0.57154183816288    3.55130425229140    1.62299950529666
C         0.26566223284017    2.34606010257841    2.22766641604911
C         0.52655548391086    1.05784527420401    1.51171104116941
C         1.64055198215867    6.06623049605087    0.82863718309524
C         2.10468285364098    7.18833988045545    0.10156755186218
C         3.05132713656605    6.95394798252979   -0.92237145142529
C         3.51540460425318    7.96419421350628   -1.71765707700467
C         3.04929890376293    9.26992551575519   -1.51848222524322
C         2.14655191350492    9.53454401378161   -0.52424379968915
C         1.66277471173203    8.51556324937275    0.31668190869799
H         0.98051245247942    3.52735135555598    0.62423469920894
H        -0.38578710710264    0.46673077569880    1.44351495304010
H         0.89652369958211    1.24056055651148    0.50631890828496
H         1.26517767507363    0.46391340703205    2.04948425855019
H         2.12496879744082    5.13322098180983    0.54331578041824
H         3.40058596800491    5.94223087998710   -1.07615893930428
H         4.23438284030390    7.76108109562422   -2.49658649796134
H         3.41081422046876   10.06953447290525   -2.14772581472861
H         1.78946167358618   10.53804152097691   -0.35172908804692
S        -0.60136839756822    9.00544825877873    4.18622805408326
C        -1.66274469948118    8.51555837196874    5.43583264813021
C        -2.10461339740300    7.18832048814872    5.65096603884214
C        -1.64045427480306    6.06621589522977    4.92390297314917
N        -0.72604923775152    6.02019568653519    3.99352647579141
C        -0.34230754406097    4.77175462640316    3.49249903875329
C        -0.26561981070257    2.34606194043707    3.52486291784448
C        -0.57145375289003    3.55131125537148    4.12955398043845
H        -0.98043581206487    3.52736146503740    5.12831597774578
C        -0.52668221868666    1.05784091036946    4.24074730345363
H         0.38547988368187    0.46646649262425    4.30866883552933
H        -0.89632915642380    1.24053656598087    5.24623340869829
H        -1.26559105913720    0.46415409273114    3.70313933740023
H        -2.12474559442531    5.13317409596907    5.20931634387232
C        -3.05122485267679    6.95390742544741    6.67493167056737
C        -3.51536592652778    7.96415829038131    7.47017652392263
C        -3.04933484767320    9.26991185579613    7.27095365868949
C        -2.14661548197347    9.53454987897130    6.27669462876412
H        -1.78968381313069   10.53807753029549    6.10406467522203
H        -3.41098657619140   10.06953727721715    7.90009059756487
H        -4.23437253880537    7.76103683273064    8.24907906167657
H        -3.40038992688512    5.94216797141474    6.82878410540533

