39
CSD_code = TELGOG | q = 0 | S = 0 | Stoichiometry = C18H16N4Pt | MND = 6
Pt        5.05919913073246    1.83343093442142    7.18633932641083
N         4.53153052538347    3.63332479283496    5.94567924949936
N         7.96642077029499    2.03403893395195    6.00395600709495
C         4.00460577940826    3.58799166185252    4.73337517088108
C         3.69300092708713    4.76318139757285    4.03433124160291
C         3.93675336410062    5.98706359995827    4.60600725108271
C         4.49633801735457    6.04600971811860    5.89260174467639
C         4.77609265075473    4.81880749524936    6.52928566490660
C         4.78810240202097    7.26501279726211    6.56580883444110
C         3.75847990761997    2.23814113313189    4.15691489980164
C         6.90821820479017    1.89186556288739    6.42979325584423
C         4.78897123110768   -0.15668319751185    6.52803037158872
H         3.26297319680074    4.69079347641113    3.04757827690602
H         3.70523193457152    6.90278593282765    4.08205000912647
H         3.02308720583161    1.71300983904689    4.77032594406762
H         4.68549289402970    1.66089726764744    4.17938329180949
H         3.39436170583025    2.29762725813160    3.13522951891976
H         4.56590338212362    8.19192256240981    6.05800223265879
H         5.43817255160841   -0.44519762417666    5.70313072251427
H         3.74742293760188   -0.44440331677657    6.39566114474816
C         5.34240628689780    4.81874431439737    7.84406962950663
N         5.58688679573726    3.63317564013723    8.42764002927557
C         3.21057937186084    1.89192273143939    7.94378294202556
N         2.15251538516368    2.03403575198828    8.36972382172221
C         5.32968092363086   -0.15651428576406    7.84548090124662
H         4.68041397119966   -0.44548434962775    8.67031186242025
H         6.37123557192522   -0.44431147568970    7.97782418013208
C         6.11384679920850    3.58788281000742    9.63998397742543
C         6.42549303286123    4.76307700009411   10.33903682062951
C         6.18179585277398    5.98697132275884    9.76736752877127
C         5.62223456199763    6.04593851334065    8.48077031476219
C         5.33054519419754    7.26497963146659    7.80758434162422
H         5.55279523571921    8.19187405429989    8.31540953412844
H         6.41333066988643    6.90268823431111   10.29133804408916
H         6.85548443863098    4.69069897577011   11.32581391330991
C         6.35999926549996    2.23810206281794   10.21657021641326
H         7.09538065858667    1.71294316326888    9.60316367234861
H         5.43295670539600    1.66089635371747   10.19421768999448
H         6.72416055977379    2.29765932601534   11.23822642159330

