67
CSD_code = TELGIA | q = 0 | S = 0 | Stoichiometry = C26H34Cl2N2O2Ti | MND = 6
Ti        1.06115240957022    6.37048763575984   -4.38047748361051
Cl        0.31248120362372    4.21812796550259   -4.75616234199013
Cl        1.43158699440339    8.64611986841992   -4.25501309514266
O         1.11243513956948    6.18811663077268   -2.64910488146337
O         2.64005021145956    6.01691106511235   -5.02526238360350
N        -0.93247977383266    6.82709084409697   -4.12986844564941
N         0.50895299380612    6.74746941722856   -6.32943359475271
C         0.51897534494971    6.72876465154746   -1.62364817541503
C         1.14966516360571    6.80241978502751   -0.35094696637132
C         0.44724897921168    7.36138889636970    0.69564219783950
H         0.90563230984453    7.43312633238121    1.66897271156309
C        -0.85771715496323    7.85320147081561    0.56936725764153
C        -1.46638119754058    7.78871457881138   -0.65997293177585
H        -2.46955107305360    8.16957915792346   -0.79153227607083
C        -0.80038530589866    7.24364768518460   -1.76858467243200
C        -1.46817596317632    7.21226826995547   -3.03423589249098
H        -2.51352383500202    7.55019939058749   -3.03401690811179
C        -1.67978868604235    6.83067173392192   -5.35855441235174
H        -1.91611060417703    5.78703824221815   -5.61258355415297
H        -2.61179228793768    7.41054818996731   -5.27966514161654
C        -0.76185890301560    7.40990537339348   -6.44797883046777
H        -0.60455968548532    8.47960656028346   -6.24682222548492
H        -1.20776477853278    7.28437597299739   -7.44627131240874
C         1.12780405118512    6.32269507953902   -7.36495732956396
H         0.68140103637464    6.46799197974477   -8.35822406549343
C         2.39187864703267    5.65170877024726   -7.33901140337140
C         2.91622576313815    5.13877017100308   -8.53548322249818
H         2.35040426273162    5.26564505007582   -9.44787805256761
C         4.11803158225195    4.47446567907108   -8.55360296700642
C         4.81441314648462    4.31971686580687   -7.34867388742171
H         5.75055054574088    3.78617372968825   -7.38897981157845
C         4.35970606960513    4.81176166026495   -6.14353330257065
C         3.11738918883526    5.50387821076092   -6.12303520202268
C         2.56974584009663    6.27469362443483   -0.19654681699942
C         3.12082229728384    6.46930316228311    1.22020446842723
H         4.13612959502896    6.08081432829670    1.26317014471116
H         2.52634655869408    5.92997723280364    1.95407895988212
H         3.15395071051474    7.52273132976852    1.48805710569445
C         2.57587007618474    4.77011797150659   -0.50600946449458
H         2.19291082310796    4.57198891284788   -1.50568198437671
H         1.95340282761646    4.23847290701366    0.21167304135283
H         3.58937823335712    4.38041635087551   -0.43967085305216
C         3.49196728851904    7.02877970513058   -1.16700540528223
H         3.17857254261313    6.88966907107753   -2.20310638070404
H         4.51351497452313    6.66880194916224   -1.06311972353362
H         3.47503969664468    8.09469674198745   -0.94628192279966
C         5.12770009842670    4.63052173449249   -4.84111821538820
C         6.42101055068546    3.82919963443846   -5.02523393968757
H         6.21430901524121    2.82927885161169   -5.39936614884451
H         6.91804331155705    3.73031499061904   -4.06252512087234
H         7.10577457746021    4.33281913620495   -5.70370061736166
C         5.50112592271254    6.01393664180028   -4.28764500239261
H         6.01815609928808    5.90712167875823   -3.33645539207886
H         4.61604895654979    6.62898786506475   -4.13383036365880
H         6.16073634596825    6.52933557682964   -4.98367769770066
C         4.24211311353183    3.87088489419173   -3.84135872798313
H         3.97335338391113    2.89641552850845   -4.24554544093313
H         3.32198170206722    4.41828333600419   -3.62971849317546
H         4.77986670840246    3.72311997122449   -2.90707553115471
C        -1.54720972749541    8.43750821039530    1.76495708604058
H        -2.55974093547297    8.74482890946632    1.51802658307028
H        -1.00037421117793    9.30584345873761    2.13006780863184
H        -1.59139045952608    7.70815956308663    2.57254937998914
C         4.69203439378280    3.91023966841066   -9.81789571330754
H         5.68701187899564    4.31475823679533   -9.99784984500269
H         4.06094166790320    4.14614713692384  -10.67037422851778
H         4.78156034823818    2.82734477478727   -9.74195894608197

