29
CSD_code = TELQEI | q = 0 | S = 0 | Stoichiometry = C14H10ClN3Pt | MND = 4
Pt        4.36403676592880    5.69665735402817    6.48327966577948
Cl        4.36422841857631    3.44375984908254    6.48359447147858
N         6.10193335275791    6.11491541776303    5.44427963846118
N         4.36411905883199    7.55176240280383    6.48342340375633
C         6.96693358943110    5.25226112032999    4.92639031637639
H         6.73218796938791    4.20382481523632    5.06348531839238
C         8.10559033582055    5.65092129654922    4.24876362664622
H         8.77908765528975    4.91308261419173    3.84520847980326
C         8.35549809377610    7.01086563844533    4.10408999940331
H         9.23605375245296    7.35308578291851    3.58149569729819
C         7.46337547479182    7.91859533161902    4.63744247198193
H         7.62135091573037    8.98147033593061    4.54649017637355
C         6.32934295973619    7.46307554080163    5.31122162656659
C         5.32017312881507    8.29497161844985    5.91332186829506
C         4.96078110590701    9.64503188856757    6.12760402009112
H         5.50430744552000   10.51107598894511    5.80328315069946
N         2.62635951350209    6.11490549614683    7.52265312149193
C         1.76134354099098    5.25225023005801    8.04051539853652
H         1.99607334109780    4.20381338963413    7.90339375190491
C         0.62264897396918    5.65090956817160    8.71807959367110
H        -0.05087008781989    4.91307049755268    9.12159803150738
C         0.37273290275060    7.01085354686913    8.86274211433429
H        -0.50782790217270    7.35307325705674    9.38532813359153
C         1.26487302178118    7.91858354136781    8.32942076510849
H         1.10689586850229    8.98145882350106    8.42036812712005
C         2.39892561741272    7.46306469995189    7.65567550942498
C         3.40808955581717    8.29496531126738    7.05357318398673
C         3.76748898725642    9.64502764479155    6.83931941997229
H         3.22396664415827   10.51106699796866    7.16365891794679

