31
CSD_code = TELQAE | q = 1 | S = 0 | Stoichiometry = C14H12N3OPd(1+) | MND = 4
Pd       -1.25251520245692    6.33125821218201    2.19349070547716
N        -1.40520797839552    4.21377328908241    2.16598639643098
N        -1.93943242708890    8.33761523987105    1.92582132707126
N        -2.96676965152124    6.07641134512400    1.56269460228646
C        -0.50305195866172    3.30939214293735    2.53753499638084
H         0.44256842701881    3.68730664488735    2.91173440870830
C        -1.30343079724396    9.48423588933623    2.15444720117831
H        -0.28774899961714    9.41625479248357    2.52995748951192
C        -0.73734579041424    1.94731200754925    2.46879680022161
H         0.02364333226963    1.25122495834156    2.77994077233570
C        -1.88109761733084   10.72139819064515    1.93297850236642
H        -1.32499946563241   11.62178272742310    2.13428561488821
C        -1.96681155674746    1.50326967306896    1.99365128447782
H        -2.17614462648883    0.44720068367032    1.92602597572611
C        -3.18419327736366   10.77362742011919    1.44894265086188
H        -3.66026237528731   11.72409856850752    1.26587108352930
C        -2.91597852608640    2.43107763644180    1.61451302166191
H        -3.88281118340462    2.12796607526738    1.24743785570556
C        -3.85731434619471    9.59366524369093    1.20683185878507
H        -4.86757580589339    9.58972295073604    0.83175007519154
C        -2.62463280609559    3.79318390400640    1.70760277706453
C        -3.22319593242320    8.37364475585880    1.45075746382975
C        -3.51955331102063    4.86939984053835    1.36011629281089
C        -3.80802506241053    7.07268891700181    1.24205295290346
C        -4.82146149835282    5.09425262073801    0.87095217489876
H        -5.54154426031701    4.34676312458514    0.60517556874904
C        -5.00171686579802    6.47085235399634    0.79714416022560
H        -5.88556464591111    6.97635041670758    0.46366346530978
O         0.81966357329097    6.60463552971761    2.95574260520704
H         1.56682926182283    6.12792372478059    2.57601022069841
H         1.14568137375778    7.44571112070218    3.29428969550673

