119
CSD_code = TELVOX | q = 0 | S = 0 | Stoichiometry = C58H49BFeN6O4 | MND = 5
Fe        2.74642317096635    3.08069697115661    9.94980481900168
O         2.47076470013841    4.29450431299105    8.39094599224765
O         1.88912710111061    1.64433827131786    8.83360394711062
O         1.48672130224964    5.21118925598006    6.61315227159422
O         0.65306798134100    0.68848052779261    7.22353704712645
N         3.33107122655014    4.53053072317718   11.09919807101048
N         4.44190769307783    4.41022834132601   11.82459621832264
N         3.02652967654539    1.87889067534340   11.51413421855203
N         4.17087949249315    1.99394974951655   12.19372518483954
N         4.67452357721521    2.80917508645306    9.39813146974703
N         5.60210361367620    2.81987825881789   10.36384757379824
C         4.65286854679219    5.52785588047520   12.55373484590516
C         3.62137395966260    6.40581899590851   12.26885097217871
H         3.47926247521009    7.38560387927140   12.67708136297519
C         2.80842964140320    5.74042506606969   11.33805446209595
C         4.27908513410715    1.01065688541258   13.11196645666474
C         3.14884384647242    0.22026657803893   13.00416458000042
H         2.89514310101533   -0.62959542533597   13.60419916780834
C         2.37430960948447    0.81463131122450   11.99644683867927
C         6.84134315952317    2.87083536550415    9.82959828763449
C         6.69300723238431    2.91604364597568    8.45396851102586
H         7.46541073969036    2.93810907892161    7.71218261242684
C         5.31109771966095    2.86355436241608    8.22872627565715
C         5.78266605320359    5.69830410415423   13.46368234624991
C         5.55974671267001    6.11029270726595   14.77496924024881
H         4.54991331351049    6.30898895532573   15.10393561060934
C         6.61812077975511    6.24474587422166   15.65467639286320
H         6.43398574447626    6.55721493946725   16.67239019168769
C         7.90971441013983    5.97208880586841   15.23561230639571
H         8.73417555580766    6.06880921851077   15.92663097395065
C         8.14147031037655    5.58290014577989   13.92648591496703
H         9.14666103304995    5.37698573098871   13.58954391048003
C         7.08733734246258    5.45271284625037   13.04257265717656
H         7.27248448298032    5.16447499447415   12.01981460122351
C         1.58960291532750    6.21940761515631   10.70657036758703
C         1.38168406160987    7.58378735965222   10.50231140009990
H         2.13240764242030    8.29038067294408   10.82319223805472
C         0.23882328462186    8.03164043230750    9.86561574086244
H         0.09515419775136    9.09035466407013    9.70542241652485
C        -0.71301708112546    7.12952539528424    9.41947219553839
H        -1.59738449185142    7.48027965997696    8.90914103206321
C        -0.52488466351357    5.77224516476582    9.62976860436114
H        -1.26307266805802    5.06423926894326    9.28268260207778
C         0.60946553409026    5.32536801554271   10.27715953186412
H         0.75585353291163    4.26204391384088   10.45297528148204
C         5.40961101937232    0.87985596521467   14.02927450351647
C         6.09698469783963   -0.32752910835955   14.11384558125193
H         5.78171712081445   -1.16052062802866   13.50231701771974
C         7.18588832518049   -0.45466052242483   14.95700878792050
H         7.71785909907248   -1.39355842530389   15.00911258350362
C         7.59865288885688    0.62035973667158   15.72606667078687
H         8.45487287217737    0.52289427410555   16.37724602696651
C         6.90606879804801    1.81858242662924   15.66349382424137
H         7.21772601815996    2.65826014249716   16.26703781630127
C         5.81391792824174    1.94800530650012   14.82698821746920
H         5.26826698965801    2.87844957631751   14.79112704462387
C         1.03339580381332    0.42202704369374   11.59318024205048
C         0.63763615994423   -0.91412952541664   11.63620766759339
H         1.35203445422227   -1.67260039044232   11.91887115268335
C        -0.65608710457712   -1.27184315457545   11.30317752332474
H        -0.95176569230030   -2.31030102260250   11.33763254779051
C        -1.57266355674378   -0.30535859378881   10.92084592834684
H        -2.58127539300814   -0.58802980859812   10.65874590141056
C        -1.18932192796599    1.02637197724430   10.87813261304112
H        -1.90211228849449    1.78446652577554   10.58703838485301
C         0.09991522511844    1.38577927127581   11.21888478043391
H         0.40122452376999    2.42496106478443   11.22227268152614
C         8.07017686103791    2.84924349346985   10.61662678812534
C         9.09259426586093    3.75132373880525   10.33231473256461
H         8.96412811917184    4.46135146191226    9.52824440360834
C        10.25332751033515    3.75293407154627   11.08376258369522
H        11.03703900957345    4.46215710060627   10.85951379722719
C        10.40871532984016    2.85354774247232   12.12545102749320
H        11.31235086968229    2.86160519826525   12.71715759642813
C         9.40531431686661    1.93886062031817   12.40075076814855
H         9.52336262578842    1.22848302601621   13.20568163725346
C         8.24646506496287    1.92948900756092   11.64848436951701
H         7.47394799130045    1.20513540680650   11.85475948284894
C         4.68199905647429    2.84228590904723    6.90714512321593
C         4.89478311978597    3.89642707577351    6.02421306318482
H         5.47267950267833    4.75065042710968    6.34838324518141
C         4.36972163754084    3.85166016391235    4.74627010579756
H         4.53402423493188    4.67701984516199    4.06769785488149
C         3.63936048361347    2.74932053802753    4.33297431447109
H         3.23940859998580    2.70866104532945    3.33035052972786
C         3.42835555286228    1.69552978565612    5.20545984890944
H         2.85193695183995    0.83985904468184    4.88669205717625
C         3.95094940649766    1.73912692637114    6.48489573510300
H         3.81543853617355    0.91450924848824    7.16474650601466
C         1.22009804814239    1.78483609725070    7.78039381856763
C         0.99299794480916    2.97704205342614    7.06308031355664
C         1.69745199214475    4.14396603955294    7.41246005036932
C         0.70693411532020   -0.53682456526218    7.93998576875334
H        -0.02776347581990   -1.16834720436136    7.43298873629056
H         0.39192233068015   -0.36789228660510    8.97309229440135
C         2.07730368304928   -1.20227640489616    7.92937045915765
H         1.99530654151156   -2.19342723107577    8.36826524939729
H         2.77720804973884   -0.61450174266806    8.51744711303611
H         2.44509706579595   -1.29490965778186    6.91014297854482
C         0.02692564357443    2.98403142825689    5.94729255431541
C        -1.25429423508930    2.46948478610430    6.13929388878343
H        -1.52281699713551    2.06323679623050    7.10380500251904
C        -2.18261453884729    2.47341125741437    5.11580422595713
H        -3.17095627458188    2.06846511497033    5.28436462299582
C        -1.85385563683069    3.00063463156276    3.87841211843082
H        -2.57962320386276    3.00537501422673    3.07774405060877
C        -0.58793322042193    3.52368509924868    3.67835246355542
H        -0.32335488696913    3.93845682752160    2.71543975836613
C         0.34285769718247    3.51569111304678    4.70066255860737
H         1.32774482844855    3.92096274942531    4.53606434351022
C         2.21428587760795    6.39128900854741    6.92667680579037
H         2.01861681603814    6.67900524932265    7.96542136575038
H         3.28690092930901    6.18519520218856    6.82803887435606
C         1.77055473865473    7.47836496753199    5.96493007554493
H         2.31357810545592    8.39660144052603    6.17032299691801
H         0.70516304557999    7.65865789040440    6.07914966708034
H         1.96019225020845    7.16996812601581    4.94050842398975
B         5.18518058433207    3.07082823086393   11.81391123025094
H         6.10746447060569    3.08176867801638   12.54111837986172

