173
CSD_code = TELWEO | q = 0 | S = 0 | Stoichiometry = C90H68B2FeN12 | MND = 6
Fe        9.38892044393934    7.94860042177702    6.49176381595197
N         8.56482663435035    7.55676762579147    4.70281147826930
N         9.18282034979036    8.13847661834579    3.66662414693646
N        11.16584315710563    7.31550382674820    5.74464356363714
N        11.47184240469955    7.84049982682195    4.55082127926898
N         9.77920244271402   10.06771635645024    5.93028773543772
N        10.35911846990806   10.07701661285987    4.72579000973651
B        10.53646237621578    8.83835783370186    3.85866888055695
H        10.98362612087693    9.14212463535372    2.81321193464662
C         7.60705555995997    6.76024415510944    4.20999664903190
C         7.61986010158389    6.84098571783650    2.81150923710248
H         6.95597989355410    6.34485578287263    2.13297859855158
C         8.62687898471646    7.73924776245067    2.50102344368761
C        12.09608034308099    6.39634691951353    6.03202803012149
C        13.04132568451107    6.36393000188382    4.99821917229278
H        13.91077271481369    5.74131016608136    4.93803340536243
C        12.60926123566458    7.29459019743859    4.07090122216202
C         9.68790519251597   11.34552383093726    6.33999017046431
C        10.22396726761320   12.17696230661167    5.34193978172014
H        10.33453488883425   13.24048605761822    5.34436895849269
C        10.64571428736229   11.33597458230933    4.33703177573387
C         6.73832314325704    5.85766493850531    4.96862148654618
C         5.91596376366868    6.28578911485217    6.00317802848287
H         5.86912941754813    7.33325795838832    6.24193569637535
C         5.13280839820994    5.38218996826656    6.69773814473484
H         4.50265070497945    5.72981188781525    7.50390937068180
C         5.14537073163118    4.04059699393416    6.35936373660169
H         4.54455509127419    3.33457138283350    6.91341539404122
C         5.91927018277331    3.61360567955553    5.29316028459317
H         5.91640404334209    2.57258449788494    5.00456056729964
C         6.70157111893344    4.51429600695801    4.59649433314055
H         7.30777188571423    4.17493330929988    3.76957352466637
C         9.04129579893157    8.19163251709997    1.17843795416158
C         9.29393393584289    9.53545906122751    0.91208722947133
H         9.16655357178258   10.26708627604760    1.69450171354160
C         9.70237490736724    9.93097224262423   -0.34732098102976
H         9.90702198228099   10.97415901092320   -0.53705391821610
C         9.85229197473781    8.99705733267064   -1.35927448467721
H        10.17609823082459    9.30896083468552   -2.34140519266599
C         9.57962554325255    7.66210210873265   -1.10976718713380
H         9.68811728483035    6.93051979633619   -1.89754643205651
C         9.17504063523995    7.26078284813106    0.14964131065860
H         8.97537362971067    6.21771119070747    0.35000066254309
C        12.11443139881013    5.47901766282897    7.17412567424432
C        12.07515158882710    5.90101237940050    8.49660700988505
H        12.09329116794867    6.95302536716584    8.71666072949781
C        12.06442099792909    4.98200195992387    9.53028076130267
H        12.02747609477067    5.33003461792202   10.55279043571327
C        12.11323981358865    3.62613477892164    9.25829110891380
H        12.09318543339927    2.90830432431788   10.06566707440397
C        12.22264426262676    3.19715166038183    7.94587886681159
H        12.29838884485201    2.14230400114955    7.72479198215819
C        12.23649075892647    4.11443777735662    6.91300108585762
H        12.32825454453778    3.77491606538091    5.89230745172339
C        13.25428121935802    7.64782499293126    2.80670307024285
C        12.58825538053313    7.54895433071883    1.58888282539355
H        11.56833595908853    7.19924845521814    1.56258702892665
C        13.22722620527825    7.89283799895354    0.41267884961340
H        12.69272298731116    7.82251606327354   -0.52316996341516
C        14.54291275036739    8.32450300813649    0.43388552450856
H        15.03980459638681    8.59538255128814   -0.48617812262950
C        15.22245720701447    8.40020460661706    1.63832413147527
H        16.25223788275465    8.72699312886249    1.65979456657357
C        14.58377413900092    8.06219981090286    2.81711099116529
H        15.11124228578065    8.12546991942448    3.75840639197447
C         9.13883142994351   11.87721629702381    7.58621366613671
C         8.72369206767831   11.07722282842271    8.64715031370721
H         8.80719469354685   10.01700689126518    8.54745730595174
C         8.21373954107387   11.61947272526305    9.81116467037131
H         7.89599993666660   10.96414879867136   10.60986225756561
C         8.10512268342891   12.99122380231323    9.95426344907860
H         7.70699978372326   13.41979033086186   10.86226713456309
C         8.51284066316276   13.80748108870254    8.91230530453858
H         8.43262037833254   14.88123974885125    9.00630146787508
C         9.01908769565523   13.26202935979567    7.74875984472071
H         9.31161984388963   13.93194314303365    6.95740996652252
C        11.27267539563524   11.72248441528933    3.07514204503296
C        12.49912588557396   11.20160248616460    2.67459741552792
H        13.00485473556280   10.49034823275452    3.30809211146727
C        13.06564704926953   11.59397336564501    1.47671649228832
H        14.01314901204254   11.17488054314900    1.17201575531078
C        12.42248860431533   12.51797058574226    0.66994347928997
H        12.86576869642120   12.82030698109366   -0.26753791967710
C        11.21210282976874   13.05780560114021    1.07171750996192
H        10.71078011321376   13.78572351057748    0.44968019834479
C        10.64069136854406   12.66472919613878    2.26805019559036
H         9.69092218432388   13.07433268392695    2.58139312300653
N        10.21307606708906    8.34033359501932    8.28070094282941
N         9.59502478501870    7.75870002596773    9.31689541482187
N         7.61201375066482    8.58174946635741    7.23889791763321
N         7.30599052308281    8.05670954966725    8.43269617201356
N         8.99862711630325    5.82947830640871    7.05322927081084
N         8.41872247872871    5.82017888683354    8.25773210693029
B         8.24136867480802    7.05884353550893    9.12484252171107
H         7.79418903611576    6.75507897158604   10.17029172278840
C        11.17081816874324    9.13689610833180    8.77351290728711
C        11.15797283244522    9.05621059474543   10.17200376887322
H        11.82181890988976    9.55238557316676   10.85053436406454
C        10.15094124494668    8.15796467702574   10.48249522189959
C         6.68176072317928    9.50088853788216    6.95150741641877
C         5.73650079145339    9.53327615734156    7.98530367059451
H         4.86704087227834   10.15587852205983    8.04547911543725
C         6.16855863873436    8.60260140432653    8.91260942890117
C         9.08992225051915    4.55167054476987    6.64352830906274
C         8.55389054095629    3.72023047367132    7.64159314161301
H         8.44333727601169    2.65670500750057    7.63917100489395
C         8.13214159694995    4.56121989013316    8.64649919176418
C        12.03952878945582   10.03948913699764    8.01487940419171
C        12.86190453309636    9.61135084261805    6.98034199590352
H        12.90872848239571    8.56388077547522    6.74159063695528
C        13.64507499939353   10.51494026054726    6.28578836259566
H        14.27524254258790   10.16730543083879    5.47963130514398
C        13.63250816345718   11.85653848214559    6.62413858682123
H        14.23332447363372   12.56255629243028    6.07007723876276
C        12.85858562879771   12.28354856955308    7.69031855516477
H        12.86145162873508   13.32457543698519    7.97890252325839
C        12.07626592120043   11.38286805646036    8.38697844685769
H        11.47005908193229   11.72224568164263    9.21388974935650
C         9.73648613558056    7.70562782071089   11.80508432924408
C         9.48381801498539    6.36181198293144   12.07146002702865
H         9.61120549948779    5.63016434119340   11.28906648278300
C         9.07534514837407    5.96633431049765   13.33086842626421
H         8.87067297038901    4.92315599839462   13.52061780992242
C         8.92543318937305    6.90027407395252   14.34279968635868
H         8.60160781789192    6.58839661836234   15.32493218796260
C         9.19813144315437    8.23521822245961   14.09326830016277
H         9.08964792735934    8.96681817318160   14.88103229958745
C         9.60274016560611    8.63650362566919   12.83385654830064
H         9.80242846697613    9.67956754238319   12.63347738801771
C         6.66339364442568   10.41822500884873    5.80941596421574
C         6.70269244390729    9.99626308674864    4.48692519272878
H         6.68453754077910    8.94425584771595    4.26684132781998
C         6.71343232330427   10.91529719497677    3.45327161059095
H         6.75039141506932   10.56729038944391    2.43075390850732
C         6.66459649829230   12.27115718164273    3.72529572397713
H         6.68464918231016   12.98900665807614    2.91793717589730
C         6.55516484791007   12.70010651907489    5.03771610213617
H         6.47940744524172   13.75494683220951    5.25883034499349
C         6.54130702309836   11.78279604987175    6.07057112309603
H         6.44952959146902   12.12228827729128    7.09127309919325
C         5.52351393299775    8.24933143223953   10.17678426397687
C         6.18951108510321    8.34818386850663   11.39462168055781
H         7.20942599017547    8.69789954556910   11.42094769013563
C         5.55051503064654    8.00427576532120   12.57080450009296
H         6.08499604323309    8.07458645744857   13.50666647668245
C         4.23483051554568    7.57260674183843   12.54956072864319
H         3.73791820241407    7.30171254578407   13.46960903312821
C         3.55531386854275    7.49692344337488   11.34510509764629
H         2.52553353660119    7.17013507197283   11.32360649188886
C         4.19402352311903    7.83494986334148   10.16633868098449
H         3.66657538202082    7.77169715955532    9.22503053135133
C         9.63896954820397    4.01998143581092    5.39729233761769
C        10.05408578952663    4.81998877449902    4.33635467845063
H         9.97051241178695    5.88020092576081    4.43603234217372
C        10.56405830059539    4.27774361888376    3.17234510727648
H        10.88178853202862    4.93307307972196    2.37364717186502
C        10.67268788892959    2.90599381123330    3.02924027954801
H        11.07079916909460    2.47743258041438    2.12122791219590
C        10.26497283604514    2.08972612079371    4.07119225919080
H        10.34520047108416    1.01596809118694    3.97718887259255
C         9.75872119899357    2.63516928295533    5.23474064220240
H         9.46619983708398    1.96524795554036    6.02608937096041
C         7.50519930171044    4.17470246432565    9.90839631136181
C         6.27875013794330    4.69557132971227   10.30896236907683
H         5.77300237096829    5.40682111637047    9.67547786614283
C         5.71225367268681    4.30319445412594   11.50685323255238
H         4.76475305953917    4.72227842948162   11.81157017740192
C         6.35543356063520    3.37920147790114   12.31361387394505
H         5.91217134737899    3.07685837017905   13.25110165853250
C         7.56581675235072    2.83937686820990   11.91181758941167
H         8.06715616340903    2.11146141104545   12.53384429290337
C         8.13720433940479    3.23246083553177   10.71547605813477
H         9.08697230179881    2.82286684883593   10.40211715478392

