58
CSD_code = TEMDOE | q = 0 | S = 0 | Stoichiometry = C20H26BMoN7OS2 | MND = 6
Mo        3.85227786888324    4.67321393774870    2.70000834532655
S         4.07591315284326    7.11845971526421    2.70317778019548
S         4.93438497403601    7.13053002331331    4.58296811777496
O         5.47328101386383    4.54998593121535    2.86487264400511
N         3.38205888269619    4.94317506239829    4.69280233423598
N         1.68203853734412    4.81673434930473    2.46956712079852
N         1.05311572910627    3.92780058878854    1.66494875367020
N         3.74676477673647    4.31426563415311    0.65123763506319
N         2.88854612468821    3.44219693139080    0.08889179519953
N         3.39656771668880    2.61673150103590    2.86793097047866
N         2.53742129309489    1.98456972109269    2.04919042352522
C         4.03829067700133    5.89208003934763    5.40872609498837
C         3.95271349954834    5.97320978273238    6.80196242823027
C         3.13755103294100    5.10374303152213    7.48988178238647
C         2.38116553774651    4.19129574349307    6.74700146967641
C         2.53527820754556    4.15310794961344    5.38367227777612
C         0.97700192548940    6.78533966351217    3.87307425926700
C         0.74474689016445    5.65434559758474    2.93515190103725
C        -0.49670576001365    5.29687611038177    2.40915452290369
C        -0.26162254997906    4.19716774406785    1.60573280149593
C        -1.24140828874325    3.42145739963706    0.80226926226786
C         5.68485875611764    5.68982084543942   -0.00955471670359
C         4.59618180730417    4.72234931029447   -0.29014426915337
C         4.26795501254981    4.09529067936847   -1.49611199307334
C         3.17544531051130    3.29502133502661   -1.22090768019650
C         2.40388914893287    2.41841009641328   -2.14017165014965
C         5.05968081812583    2.04575660235939    4.60761282104190
C         4.00577394856674    1.69978641483863    3.61933919702715
C         3.51035868279634    0.43808615747036    3.27739576273518
C         2.57863762636263    0.65669538628882    2.27885970872174
C         1.73620399907262   -0.33211161877747    1.55764723429081
B         1.81460231662611    2.79311547550481    0.96166395018817
H         4.51924586145789    6.74122727162386    7.30268519051691
H         3.06099571755033    5.14332973988266    8.56456723433798
H         1.69028291850726    3.51859586428322    7.22935572144104
H         1.97588968082775    3.43684596970640    4.79287328275941
H         1.83884047232209    7.37865383125168    3.56232737705668
H         1.14794956217491    6.42731314756071    4.88962337266488
H         0.09654879606178    7.42354741408523    3.88269789098589
H        -1.43508017494412    5.77987861523307    2.59035133641366
H        -0.98139743399052    3.45277539397036   -0.25399085487262
H        -2.23204041550862    3.84814183374758    0.93341031240043
H        -1.26157344760697    2.37925822789750    1.11509345471060
H         6.21652657239719    5.39056336178308    0.89608580765373
H         5.26989881448629    6.68403997432294    0.16506656730950
H         6.37823259485278    5.73254810716036   -0.84481197684960
H         4.76013192064832    4.21489181673653   -2.43966315358811
H         2.43349810770202    1.38403650398772   -1.80158564025135
H         2.83127653743480    2.47437281869447   -3.13729544426511
H         1.36143638961217    2.72913330393182   -2.18567925831719
H         5.63489236633708    2.89657733337734    4.23606459485166
H         5.72346062126241    1.19736037776918    4.75394236072818
H         4.62588980871791    2.31397931039960    5.57150712459095
H         3.79563998606950   -0.50337547735731    3.70058081751568
H         0.67991150839020   -0.09350873780427    1.66832276357546
H         1.91819932982223   -1.32506649349695    1.95912239705274
H         1.97155631713389   -0.33383393535497    0.49470774584147
H         1.08981891963673    2.11080728479549    0.33248989070579

