35
CSD_code = TEMJOK | q = 0 | S = 0 | Stoichiometry = C15H12N3OReS3 | MND = 6
Re        6.32683594602912    1.29651926081890    3.79943847994992
S         7.22051995037019    2.72521488185431    5.45429938575047
S         5.28244129954538   -0.31062279189756    5.45514802402653
S         8.03059092191846    1.83805118120781    2.07654643778334
O         4.88229071048388    2.03963115603413    3.48569108503539
N         8.84395278765790    4.70966149629922    4.91539187544641
N         7.70688654739369   -0.12815635955208    4.69514901070182
N         6.54823859430917   -0.21199612701532    2.26111697699069
C         7.70354192065250    4.15183940302979    4.54415334549009
C         6.88803586597206    4.67117354765208    3.53732085127849
C         7.31189765543041    5.81424256679350    2.88874444350344
C         8.51406114990770    6.39888756865503    3.26698612941887
C         9.23467654305261    5.80583299166438    4.29096046025376
C         6.91514362836201   -0.85047434546721    5.51311980113170
C         7.41706551161974   -1.89675927742462    6.29146521864624
C         8.76298093565103   -2.17235806085137    6.22166496435671
C         9.58007198374026   -1.40799745004536    5.38493397487797
C         9.01185838862630   -0.39609300752765    4.64357241033070
C         7.49779733987931    0.31275199729899    1.46417464329655
C         7.93525457160379   -0.35332285553950    0.31984597192779
C         7.35175423897259   -1.56461095444197    0.01454646723476
C         6.35866757305475   -2.08709297819713    0.84380413783667
C         5.98286544800155   -1.37355978768858    1.96506042384477
H         5.95398787222318    4.18288779602014    3.28970532245375
H         6.71248371985256    6.24676582250747    2.10085080632403
H         8.87803561696939    7.29075748884807    2.78137425151874
H        10.17490579270166    6.21930575779281    4.63263790202029
H         6.74456084172818   -2.44679892246392    6.92818454227004
H         9.18921384524032   -2.96816431000376    6.81346135641940
H        10.63891757530429   -1.59589606382539    5.31994394536760
H         9.60512970285309    0.23057949819735    3.98891885887406
H         8.70019904865146    0.09155052839588   -0.29508028643004
H         7.65957993395023   -2.10657588317076   -0.86692156680632
H         5.88624623827803   -3.02860837330237    0.61875012600535
H         5.22101030001672   -1.72366539466291    2.64834022286854

