32
CSD_code = TEMKEB | q = 0 | S = 0 | Stoichiometry = C12H9N6OReS3 | MND = 6
Re        0.66696016870776    4.62022495615547   10.62354832123058
S         1.72707183685931    4.28568234063037    8.33279511374498
S         0.27933703879998    6.55321824093517   12.34355040991608
S        -1.67086938497406    4.45046771885770   10.06450639762957
O         0.98766990741503    3.02044195227086   10.89787929142999
N         0.55363371137002    6.35119514141400    9.24572796657460
N         1.35995939524161    6.58778584450986    7.02420342133209
N         2.39103402672949    5.68319908272712   11.25163900553722
N         2.76488397500210    7.49840776663624   12.72945012185929
N        -1.09091523510938    3.81543056508285   12.50237492851833
N        -3.39687360550024    3.84324190503030   11.98624695404100
C         1.18011083654929    5.88973493294365    8.13515262068768
C         0.02197314332148    7.56796987672089    9.19266262230941
C         0.14208983524320    8.34827425659980    8.05718019306015
C         0.84932683453402    7.79960216266977    6.98771338979897
C         1.96362812955116    6.63081431893593   12.13081306377406
C         3.68697949344408    5.59552043819541   10.98553910342141
C         4.58106927731862    6.46733083575202   11.58426387785743
C         4.05060579301863    7.41506130751771   12.46047017161132
C        -2.12249413853283    3.99472274173075   11.66753856914213
C        -1.35863179159316    3.46158541231133   13.74283004201517
C        -2.66555957320369    3.27168104133018   14.17404067650560
C        -3.66113570283223    3.48214413756605   13.22796912723013
H        -0.49901913430793    7.91371355974100   10.07697603299844
H        -0.28957155586087    9.33279113576004    8.01030580559889
H         1.01058259429590    8.34883415973977    6.06995386464608
H         3.99141726319306    4.82529935100113   10.28842198374415
H         5.63594902214725    6.41014683789196   11.38061552045405
H         4.67983779111176    8.13488170796390   12.96666235333881
H        -0.50731099813815    3.32550273155848   14.39642425468823
H        -2.89137569502636    2.97722099102788   15.18465341394194
H        -4.71036325876932    3.36087254879388   13.46449138135134

