37
CSD_code = TEMKOL | q = 0 | S = 0 | Stoichiometry = C20H12N4Ni | MND = 4
Ni        0.11939235721877    1.50496736827885    1.08418594974010
N         1.61123062072674    2.71846901906942    0.64939555647166
N         1.34303097435635    0.38125337352624    2.14589323047941
N        -1.37118541334846    0.28831826507125    1.51433438710440
N        -1.10336129814482    2.62660627279281    0.01936574093688
C         1.56903023880652    3.83777276645660   -0.13243887842126
C         2.90850445636956    2.62043511289369    1.06576972657948
C         2.67479497592838    0.58718792292448    2.36926472424512
C         1.04038496767158   -0.76921173450551    2.81725324156991
C        -1.32152197790743   -0.85049570200633    2.26702210156093
C        -2.67517541365468    0.40396929299355    1.12429639480543
C        -2.44222153240798    2.43924925952171   -0.17620666974201
C        -0.79366902701815    3.75863166869826   -0.67956635324663
C         2.86280623060998    4.45374071218300   -0.20999425596481
C         3.69557064893044    3.69785397950866    0.53759731836889
C         3.21862072403374   -0.45085118445542    3.19751762300898
C         2.20234640837421   -1.29604840626828    3.47420042052578
C        -2.61696625625408   -1.46207234367309    2.35115336307888
C        -3.45964968707878   -0.68019602866788    1.64243399053666
C        -2.98434400211576    3.47283662946501   -1.01111852877510
C        -1.95827063704896    4.29237238073542   -1.32617220924116
C         3.42892420577873    1.63242230657001    1.87640792130343
C        -0.20110105567326   -1.36783747840384    2.88439429449881
C        -3.20111609666963    1.40651589765501    0.33535415135002
C         0.45341773869328    4.34257894877243   -0.76861047982505
H         3.07704365367847    5.34516213038404   -0.76725613383850
H         4.74283436749602    3.83291323897672    0.72751417249615
H         4.24394639464511   -0.50262186509662    3.50914687532125
H         2.21107980615485   -2.19287359487961    4.06303019979396
H        -2.82611612728972   -2.36677018584574    2.88860837091091
H        -4.51146754832703   -0.80330997438724    1.47035745704260
H        -4.01471457727837    3.53777632176905   -1.30301959796557
H        -1.96257603079857    5.17754104480269   -1.93242605356863
H         4.47656155653795    1.67574009706152    2.13180742373615
H        -0.30187177054041   -2.28030987235831    3.45175451335935
H        -4.25447723604401    1.37815377534090    0.10232518941121
H         0.55998536158944    5.23993058509653   -1.35857517764761

