25
CSD_code = TEMMIH | q = -1 | S = 0 | Stoichiometry = C6H10N2O6V(1-) | MND = 6
V        -0.12334749146149    1.69874258937749    7.23265438500861
O         0.14776425862442    1.00350641009729    5.87382132526878
O         0.19390651937767    3.19761461005825    7.04643349309216
O         1.11447669283940    0.95903025789639    8.35123471115540
O         1.83024036378573   -0.65985707282674    9.68428221428797
O        -1.31656835243678    2.01232336638492    9.02151892004951
O        -3.31651712541628    2.63133573941492    9.78998482824750
N        -1.06715156737732   -0.37836235814431    7.73668287272564
N        -2.14020695516638    1.89552214515007    6.56357009142174
C         0.96544371951111   -0.09822659077577    9.02918885072474
C        -0.47242979184355   -0.70631798912522    9.00666003397878
C        -2.49933122246428   -0.31509750974308    7.59097010218700
C        -2.79200069134532    0.60118215364487    6.39309822588059
C        -2.86061756441953    2.81240108263530    7.42970410856195
C        -2.47329399277334    2.46578685264649    8.91534784782490
H        -0.64477790504903   -0.92531117776496    6.99015701683368
H        -1.98393258295915    2.31880677233870    5.65146976362156
H        -0.42071974796867   -1.78806892889532    9.21929338335505
H        -1.02734173186285   -0.21113544765749    9.80878830743228
H        -2.93363275322041    0.11194668614625    8.49925582405174
H        -2.97063323153215   -1.30323645842761    7.41856707331039
H        -2.37363740281505    0.13483303191369    5.49409821179856
H        -3.88133686320748    0.72200791869141    6.26753872328963
H        -3.95054711773380    2.75960749380877    7.28888867169496
H        -2.50600746308545    3.83056642315573    7.24509101419688

