53
CSD_code = TEMMED | q = 1 | S = 0 | Stoichiometry = C12H30AuCl2N6O2(1+) | MND = 6
Au        2.63723367353217   -0.00010964804297    5.50903391502795
Cl        0.56272611315742    0.15363478027153    4.26999472408053
N         3.78841323430415   -0.15666601538709    3.89452610496154
N         2.87700387575371    2.37056155150737    5.05810022051296
N         3.38723095336054   -2.58228368289461    3.76691061087018
C         3.35719756838933   -1.35117867665625    3.07212131760361
C         3.84201778306825    1.13749452030728    3.19046101062265
C         4.05237524441266    2.28120285743388    4.19604231071306
C         2.98562965905057    2.96203416172157    6.40035254011947
C         4.68263313719091   -3.12629100385354    4.16377013178656
C         5.79390606282964   -2.88022561931796    3.12976047331286
O         5.38671333158022   -3.08840743384112    1.80465215617571
H         4.72584125289302   -0.35815727888141    4.25420873453949
H         2.10586474827505    2.79329637269992    4.55041670259709
H         2.33876773126717   -1.14863401818390    2.73397936644329
H         4.01760473359398   -1.42039344259888    2.20073038120846
H         4.64817313510286    1.13080391711069    2.45206305581143
H         2.88923436267969    1.27649203849546    2.67419686979935
H         4.24739082555712    3.21133065866645    3.65025701141656
H         4.91920823010889    2.06099711134790    4.82405480815468
H         3.91540978503805    2.60277518317391    6.84700117355650
H         3.01519266522464    4.05936119601012    6.35585730301245
H         5.03136597575135   -2.72093171854539    5.12439654081540
H         4.54084615264605   -4.20527931471563    4.28173858430172
H         6.64534230969306   -3.52008258216404    3.39319622871942
H         6.14133841655212   -1.84348460403951    3.16897771538315
H         5.18787571040215   -4.02120801328418    1.66615400203064
Cl        4.71210608286070   -0.15383285029453    6.74775121852643
C         2.29043277384451   -2.96281994424101    4.61847312526606
N         2.39806830132399   -2.37067783965034    5.96049776509557
N         1.48602327642423    0.15661632322231    7.12349572584559
C         1.91786272672781    1.35065244826146    7.94633299739790
N         1.88878346195939    2.58207237024910    7.25212024613045
C         0.59390525283405    3.12801709802580    6.85626220516141
C        -0.51793222575719    2.88134893813825    7.88955891571036
O        -0.11112931334021    3.08540758221722    9.21544100488407
H         0.08832201650572    4.01758898942963    9.35709035582618
H        -1.36822946848459    3.52317469199305    7.62724434477814
H        -0.86694484940515    1.84526095982397    7.84768039610430
H         0.24467428228520    2.72444415906794    5.89504926842974
H         0.73680254287767    4.20703815385893    6.73990144514161
H         2.93611326499781    1.14727286897533    8.28452140830511
H         1.25733847991724    1.41991924848675    8.81763358101639
C         1.43186505142839   -1.13758389781665    7.82746102590671
C         1.22217473047626   -2.28136710996695    6.82183547826067
H         3.16911502256829   -2.79284172504220    6.46880128424494
H         1.02691760690262   -3.21146480151003    7.36758936654914
H         0.35569784310438   -2.06129530347618    6.19328057924957
H         0.62520829688817   -1.13084095093180    8.56530443987488
H         2.38429043598475   -1.27660743330411    8.34439077857852
H         0.54868055853521    0.35859903948390    6.76384522822739
H         1.36050251639691   -2.60458038994520    4.17132361278877
H         2.26181466072925   -4.06015192139580    4.66346020912328

