104
CSD_code = TEMSOT | q = 0 | S = 0 | Stoichiometry = C49H45ClN2O2P4Pt | MND = 4
Pt        1.83881799163235    2.96452827720494    1.58722675530761
Cl        2.81259194791024    5.20905309889072    1.76768695481890
P         6.69446596596929    3.25984372881856    1.08711908106910
P         3.89242540727036    2.12934913573707    1.05648483894281
P        -1.03930747119695    6.34850242249360    3.60824458928517
P        -0.17095348735638    3.85008028196189    2.19227674440820
O         7.39894617394757    1.97703946197509    1.09359491941760
O        -2.33885874872552    5.82664309703904    4.03149526564480
N         5.09037655426939    3.17100126885470    1.62184363903094
N         0.09643749658988    5.14145294408800    3.24680533335527
C         6.65075488940298    4.07540038967323   -0.54520342039903
C         5.61526416817694    4.90300981911241   -0.95664839536582
C         5.64869498490349    5.46337686840685   -2.22053521778015
C         6.71463145408056    5.21013514150586   -3.06811027208011
C         7.75505182545865    4.39549589936932   -2.65251210305387
C         7.72235243827172    3.82953088595242   -1.39152358449069
C         7.36458833026964    4.49232289976316    2.24057205544917
C         6.82103088667672    5.76423365332644    2.36957188966997
C         7.37630339533723    6.65463172523393    3.27014253305169
C         8.47186968161767    6.28211568069320    4.03370190122215
C         9.01695899589113    5.01568517946827    3.90000219478435
C         8.46283980484519    4.12113789684887    3.00174646450418
C         4.52187212325294    0.53026625823709    1.62555970131910
C         4.31506018934777   -0.62264958631711    0.87619449059977
C         4.77783854437455   -1.84006738181260    1.34020920021012
C         5.44065720751178   -1.91375184463291    2.55432715776487
C         5.63293733015887   -0.76894313891094    3.31033103182721
C         5.16746051286687    0.44945837896403    2.85344031321477
C         4.09637179724112    2.04307039540879   -0.75054999050936
C         3.07510323406659    2.57803572849434   -1.52633338198458
C         3.20452922292873    2.64460559727473   -2.90093493715158
C         4.36005555441117    2.17334310056060   -3.50263579710692
C         5.37235297281366    1.62106593214642   -2.73370658126233
C         5.24612546300600    1.55184055996629   -1.35798735702813
C        -1.12844870630404    7.46014267216575    2.16427966193773
C        -2.31612318696687    8.15861342341064    1.99906029550514
C        -2.46998652512108    9.02538132761086    0.93329677996797
C        -1.43299093739961    9.19663197897263    0.03095078784667
C        -0.24509176052272    8.50464363125387    0.19840061456372
C        -0.08602972371869    7.63918836919783    1.26571634872960
C        -0.14605676257427    7.27870377645305    4.88807526811658
C         1.10747862094591    7.83571854306099    4.66841726336666
C         1.73212870003412    8.53353428121157    5.68585546591153
C         1.10790032173588    8.68200107642272    6.91472486699566
C        -0.14491006876627    8.13196125303976    7.13119671027105
C        -0.77177345021839    7.43100962324954    6.11640955319805
C        -1.09897706449503    4.56587848958702    0.79836737907505
C        -0.38499815345343    4.81473920174923   -0.36780854103727
C        -0.98955696422457    5.45300375336575   -1.43417566341422
C        -2.31387917501575    5.84653161865274   -1.33452241018548
C        -3.03025785940808    5.59568380884256   -0.17520621572089
C        -2.42919945001499    4.95668247488342    0.89448987614571
C        -1.41090143709390    2.89406503870887    3.09754889563253
C        -1.38735542560550    2.86715971764940    4.48627025625608
C        -2.30855858569790    2.10266699571318    5.17753157547734
C        -3.24290676846325    1.34764960435837    4.48784920076977
C        -3.25283399272910    1.35258147717150    3.10235144029103
C        -2.33683529525836    2.11924021515346    2.40676664285502
C         0.99158153365157    1.09745001200702    1.43041409788827
H         4.69019011685124    4.08331793854950    1.85535773218249
H         4.77305635278169    5.09715255352894   -0.30785746195099
H         4.83798895108032    6.09861518027960   -2.54603996595262
H         1.05017618022676    5.49375059804632    3.15438150806620
H         6.73338011596305    5.64780217086272   -4.05557248920872
H         8.58710191641545    4.19950964512400   -3.31297705557184
H         8.51281652430582    3.17666095243633   -1.05017926919080
H         5.96976451960938    6.05795920337783    1.77280467130204
H         6.95415035679936    7.64308593472838    3.37753981485495
H         8.90188860898398    6.98288491717712    4.73447392075267
H         9.87104507634320    4.72757535076556    4.49527804975683
H         8.86355307772061    3.12563564575569    2.87605425215131
H         3.80554088542035   -0.56096414592018   -0.07637850238070
H         4.62549170573565   -2.73287043800441    0.75109814908250
H         5.80820389982695   -2.86491054461113    2.91075288280657
H         6.14850123641205   -0.82728354022247    4.25767937653974
H         5.31581241667825    1.34717251049719    3.43655966135315
H         2.17370987713367    2.93063629547613   -1.02554014478690
H         2.41085691095680    3.06307953876715   -3.50238873532399
H         4.47053804793264    2.23063941362974   -4.57559363626903
H         6.26690271887206    1.24621841340623   -3.20856579727571
H         6.03027940607143    1.11857410166578   -0.75518384296511
H        -3.11456629537026    7.99595460414042    2.70847902404431
H        -3.39675404581963    9.56486037204258    0.80310214498805
H        -1.55148956916874    9.86921128993066   -0.80609708956894
H         0.56220367293777    8.63691959515657   -0.50689957725338
H         0.84025278510922    7.09422168231125    1.37687405150304
H         1.59377642992542    7.72640709782546    3.70993809825009
H         2.70906364671685    8.96395041379273    5.52089216471673
H         1.60000957569624    9.23018412328550    7.70487217856270
H        -0.63054788827912    8.25042453553651    8.08875992099928
H        -1.74785322449454    6.98887370521074    6.25495013899071
H         0.65747905934098    4.51226044893254   -0.41666795834220
H        -0.43152898044600    5.64884236058225   -2.33805280149792
H        -2.79000302812323    6.35115784355829   -2.16239639191428
H        -4.06223328043594    5.90539829563199   -0.10168146276089
H        -2.98380527118783    4.76603098994137    1.80095540380822
H        -0.65664592459530    3.45906791533119    5.01841576080037
H        -2.29878947274522    2.09532174185176    6.25759732796575
H        -3.96402366692887    0.75330196754241    5.02969848085869
H        -3.97848176689267    0.76018940451559    2.56391583498518
H        -2.34432662473650    2.13100357553238    1.32480881490628
H         0.77691795129248    0.73476135522336    2.43813177443378
H         1.63983263060823    0.37096998596206    0.93888268010973
H         0.04749966450338    1.14713888093592    0.88216219619399

