101
CSD_code = TEMSEJ | q = 0 | S = 0 | Stoichiometry = C48H42Br2N2O2P4Pt | MND = 4
Pt       -0.69532275050202    4.07681634873108   -0.01777550686675
Br        1.08450673104812    3.96303078976399   -1.67032986554773
Br        0.90086226121657    4.41250546664141    1.78448128781050
P        -2.83229124289797    3.37663109914188    4.37818622439997
P        -2.40847759565453    4.21607783054036    1.48468822980287
P        -4.81650921105683    4.47211716461106   -2.78524199900689
P        -2.11955649938667    3.52120452574747   -1.70232254658155
O        -4.28704813011644    3.39893783622771    4.21811348036867
O        -5.03911395921088    3.32027634764917   -3.65602899937259
N        -2.01395168427079    4.17091844628746    3.11417414963734
N        -3.66698946669608    4.20020563638256   -1.55605520583352
C        -2.11069155646180    1.71229298010256    4.48220929897118
C        -0.77828744075358    1.45162787875691    4.18394195344267
C        -0.30121913778173    0.15605453325549    4.27175372057373
C        -1.14559259264139   -0.87313639520283    4.65836551029787
C        -2.47300371777789   -0.61108684135035    4.95702190754561
C        -2.95536977351098    0.68235386373353    4.86950869215702
C        -2.22032814267608    4.33448569732269    5.79711373929407
C        -1.04158482231138    4.04148731361737    6.46724218485206
C        -0.64015250254664    4.84015995802235    7.52360732682164
C        -1.40939769046203    5.92650273487883    7.90771088365508
C        -2.58817500546118    6.21714769705139    7.23944935003467
C        -2.99366394377505    5.41986131662226    6.18544231507905
C        -3.65303788485585    2.90253566831384    1.37555114814432
C        -4.99994316881267    3.08004862884923    1.09512868786308
C        -5.83648856536527    1.97960083111824    1.04541250718429
C        -5.33792453725976    0.70856308889179    1.27366374527477
C        -3.98970334049693    0.52674927343829    1.53506474334462
C        -3.14847318904486    1.62010802285465    1.57203067511239
C        -3.27709509241411    5.81315657002453    1.36795393021787
C        -4.35427947181028    6.11479299863749    2.19543141417437
C        -4.92353673892424    7.37356011874199    2.14234234766085
C        -4.41367749049878    8.33651058030101    1.28375172671722
C        -3.32150783702846    8.04897990142754    0.48074130859623
C        -2.75348297543839    6.78779515022957    0.52439710547888
C        -6.24839269332314    4.90364569502526   -1.74907654460123
C        -6.31890930154701    6.05678128940611   -0.97846479212018
C        -7.41678571887341    6.27177969755512   -0.16504318225326
C        -8.44330310507024    5.34174355013440   -0.11924477593973
C        -8.37946935396614    4.19709293220714   -0.89704683818759
C        -7.28264744518368    3.97934989712915   -1.71134321839016
C        -4.28378301216876    5.95067835746882   -3.69935600829625
C        -4.49946330767507    5.93613322364055   -5.06969722129036
C        -4.10765358485116    7.01280060293218   -5.84398373509550
C        -3.50397560035437    8.10747484172250   -5.24783337893974
C        -3.28937904547925    8.12371566269111   -3.87888174245222
C        -3.67722415029727    7.04736462650486   -3.10281688886572
C        -2.36949153530932    1.72991616928298   -1.55499353755107
C        -1.28761084291928    0.97239450241463   -1.11161905680936
C        -1.41698582783994   -0.39379595443251   -0.94832893617261
C        -2.62851982318150   -1.00859777204390   -1.21961137434747
C        -3.70890038599419   -0.25579169929357   -1.65065204269267
C        -3.58562606159337    1.11135140690091   -1.81673357189864
C        -1.79166541926361    3.83451474816368   -3.45829276566987
C        -2.06588160036255    2.89239003624302   -4.43938334278117
C        -1.87328327041190    3.22250278541913   -5.76927403824131
C        -1.39746767176413    4.47512571276795   -6.11765200352411
C        -1.10170631382613    5.40733262296525   -5.13603266380529
C        -1.30015773671492    5.08843970632013   -3.80775756058580
H        -1.02910952260055    4.37640028627388    3.29082071423893
H        -0.11873726577715    2.24666666986026    3.86437621230497
H         0.73193664928836   -0.04981580307962    4.03448588955817
H        -3.80359157048816    4.77442916410629   -0.73325990961069
H        -0.76733374679654   -1.88283239460537    4.72320778976968
H        -3.13073122723984   -1.41461617253970    5.25452233088841
H        -3.98907324013827    0.91314349795197    5.08207283810215
H        -0.44450047502217    3.19235475528017    6.16956722967996
H         0.27659333247820    4.61476933467297    8.04776775635705
H        -1.09023087609727    6.54690407646241    8.73206109472960
H        -3.18815118505861    7.06289227410427    7.54180461831652
H        -3.91412343357994    5.61749565333838    5.65504549627980
H        -5.40738603690042    4.06797866465214    0.93390360618225
H        -6.88605623502962    2.12234015806647    0.83426606377166
H        -6.00056733044857   -0.14356260233399    1.24546158380278
H        -3.59342759772308   -0.46272091627926    1.70767551696116
H        -2.08724102645286    1.48688057957452    1.74717578470934
H        -4.71970005356381    5.36566956185024    2.88271923245710
H        -5.76035159302425    7.61097230306483    2.78263636191035
H        -4.85756219713087    9.32068550423652    1.25197079893444
H        -2.90843506457640    8.81023771649249   -0.16522257140578
H        -1.87938567912390    6.54955900551287   -0.08234623747751
H        -5.52580508086765    6.78885927842608   -1.01493553381659
H        -7.46976412245100    7.16776019225498    0.43534960876253
H        -9.29595581073737    5.51333641731328    0.52069328273302
H        -9.18408107518295    3.47712035390493   -0.86804573245232
H        -7.20904571599583    3.09760394619030   -2.33099517203202
H        -4.96057926731550    5.06546145996201   -5.51151865444472
H        -4.26928204003791    6.99761888233078   -6.91140420510668
H        -3.19424163765895    8.94859719004784   -5.85015866514754
H        -2.81124254106192    8.97570319056241   -3.41791115539499
H        -3.48846891752843    7.05180880607224   -2.03935532542264
H        -0.33838786267480    1.45387453387125   -0.89757232833041
H        -0.57485340467968   -0.97761405643936   -0.60747844885824
H        -2.73123798046116   -2.07636661843644   -1.09226244933228
H        -4.65362297502605   -0.73566684653289   -1.85946151220985
H        -4.42402840576415    1.70085749293729   -2.15175038697897
H        -2.43105908716863    1.91389480547093   -4.16477600131088
H        -2.09280948776280    2.49443833186963   -6.53591954787576
H        -1.24492681773149    4.72346900427168   -7.15754048209171
H        -0.71445010355516    6.37841153306830   -5.40532889880344
H        -1.05450131767308    5.80308508368903   -3.03194684317700

