62
CSD_code = TEMTOU | q = 0 | S = 0 | Stoichiometry = C26H15F15N5V | MND = 5
V         0.00011050343226    0.00001363170582   -0.01436549093001
F        -2.26485064356786    3.90251644919999   -0.19638162944986
F        -3.92207633002989    4.43719883857548   -2.23033040486576
F        -4.78384513144015    2.46046819287960   -3.91345708940481
F        -3.99654215551481   -0.13139427719657   -3.44305050363090
F        -2.43983437598038   -0.71594796880049   -1.28199394428587
N         0.00011013230538    0.00017313878022   -1.85598631077343
N        -1.41107181451877    1.17968322958462    0.27613844492031
N         0.00000435433159    0.00002412379197    2.16669180967767
C        -2.26033105217542    1.56293595953876   -0.68447694309089
C        -2.70421744555350    2.87920847300304   -0.95604670801644
C        -3.54736121892902    3.17219775803338   -2.01473817997872
C        -3.99120448063591    2.16918388376308   -2.87327272477326
C        -3.59141660542394    0.85616272353844   -2.63284894720283
C        -2.77764633892389    0.57806183324041   -1.55542065336221
C         0.00001688063828    0.00021053839595   -3.01125973689855
C         0.00000347286800    0.00007260990312   -4.44174382941497
C        -1.06840028489798    0.90469021954569    2.58820837965525
C        -1.26470484593688    1.94661906813311    1.48607899824744
H         0.78104619273795   -0.66571514313075   -4.81177350667261
H        -1.99834632571056    0.33567366834010    2.67670845486133
H        -0.85105018646288    1.37261438866546    3.55776732528046
H        -0.39868309216058    2.62129750171812    1.41980813315499
H        -2.15376812399191    2.54742138552216    1.70658700899989
H         0.18601708277974    1.00934707985771   -4.81184851079456
H        -0.96711361422593   -0.34349270806447   -4.81171177695232
N        -0.31616511674836   -1.81191700209682    0.27623823474393
C        -0.22347790984133   -2.73905836880157   -0.68435470254543
C        -1.14152883047053   -3.78155299705758   -0.95594516682423
F        -2.24738381970394   -3.91268899318846   -0.19621725965330
C        -0.97380009202200   -4.65816270069535   -2.01471697747524
F        -1.88201632325190   -5.61512576715012   -2.23031922262128
C         0.11671864358158   -4.54102881675640   -2.87330004071942
F         0.26066394981659   -5.37303108890607   -3.91357244939892
C         1.05402625876958   -3.53839130516615   -2.63283022419883
F         2.11185708346841   -3.39552429346302   -3.44302155965134
C         0.88810565114608   -2.69468200095968   -1.55531178015790
F         1.83999678151210   -1.75530424037136   -1.28176102780832
C        -1.05349870427598   -2.06862077739993    1.48619930670129
C        -0.24927707450406   -1.37756653925870    2.58824295330510
C         1.31767047559766    0.47293743747511    2.58826859866431
C         2.31831910019684    0.12196410339347    1.48628962691187
N         1.72736300470448    0.63217330368229    0.27633414393889
C         2.48392652983900    1.17608753572708   -0.68423622595522
C         3.84578440829024    0.90233853759329   -0.95589247954274
F         4.51232938078408    0.01024749473717   -0.19616346847018
C         4.52100089241484    1.48590282293110   -2.01472344525839
F         5.80386071633229    1.17788608062726   -2.23040683637783
C         3.87422533570517    2.37172899075574   -2.87327667764973
F         4.52270799237106    2.91239100053372   -3.91360146992696
C         2.53725791581564    2.68208603965852   -2.63274978623425
F         1.88453906828950    3.52674276339226   -3.44289956299066
C         1.88960597429175    2.11649605837003   -1.55520337195818
F         0.60008341225218    2.47098448223676   -1.28167290212939
H         2.46970028834367   -0.96536289251308    1.42000970456716
H         3.28310393344280    0.59164254501019    1.70682330367295
H         1.28987743227377    1.56279929840596    2.67689538208397
H         1.61424801458147    0.05062389534691    3.55776163337968
H         0.70846813416624   -1.89843308141911    2.67680638309698
H        -0.76323710916791   -1.42325943239364    3.55777290211626
H        -2.07084167855710   -1.65606233012844    1.41993139637521
H        -1.12915827245647   -3.13898436067503    1.70672140369118

