47
CSD_code = TEMTEK | q = 0 | S = 0 | Stoichiometry = C16H4AuBF18N6O | MND = 4
Au        1.87890987267399    3.76850281247817   11.90968435043392
N        -0.41606868037719    3.60600631540998   14.18691448226332
N        -0.19561838909539    3.39977276873592   12.90308629900635
N         1.62550065442501    2.35734751553551   14.80837263810176
N         2.36066770337740    2.39092783648000   13.71375005554013
N         1.59282031952158    4.82438375304316   14.95622583738677
N         1.86820245933247    5.21931534059098   13.72851459297124
C        -1.35860439514411    3.48836271812226   12.26672708958524
C        -2.38426219859093    3.76520307255704   13.17189563711500
C        -1.72895024062367    3.83392380029980   14.39053917195070
C        -1.42906924313120    3.30193422008688   10.78844609504126
C        -2.31089503135926    4.18251405310228   15.72319789679132
C         3.02074560303514    1.24108427604282   13.62617231483828
C         2.70407288738112    0.41928525973945   14.70874816893549
C         1.80347697787109    1.17881801264146   15.43771970561882
C         3.94108585235624    0.98091071943743   12.48128247949123
C         1.05836220266543    0.77769014001276   16.67083631177098
C         2.59659753854931    6.32772434713798   13.80646251113394
C         2.80865629641389    6.67276829886718   15.14205894755041
C         2.14697925866645    5.67656053459211   15.84148706911740
C         3.07030104569706    7.00931820824608   12.56709303826682
C         2.09828165363028    5.47716257741742   17.32279018926550
F        -0.75737667479433    4.26377633802375   10.12576269125688
F        -0.88542723092331    2.13910717450208   10.39856729609342
F        -2.68334704177509    3.32323252338799   10.33720114147089
F        -1.73492905325552    5.28441171707207   16.23242759709801
F        -3.61756685475240    4.44242880293142   15.61795035871413
F        -2.17682382510876    3.21481818916126   16.63310091203731
F         4.87053244486061    1.93973139696976   12.35174949666420
F         3.28520943516293    0.94078155642202   11.30549594069889
F         4.58511522866227   -0.17963162162698   12.60684504480448
F         1.37080510845498   -0.47122322937570   17.02922667763776
F        -0.26936369883557    0.80330227880220   16.46686663834750
F         1.30744552691864    1.56025615117262   17.72333770645616
F         2.06904765085877    7.24463707213998   11.70521311024682
F         3.65307081259793    8.17988073937531   12.82620526849421
F         3.96833975383653    6.26417291836902   11.89416711560580
F         0.86243458188299    5.51151945151336   17.82607382631240
F         2.80381576467400    6.42144838559499   17.95272550391252
F         2.63276176826353    4.29482419726074   17.67126350075172
B         0.74506887229582    3.56039343595756   15.19921489414804
C         2.46528554751976    3.90434853730581   10.11343113499567
O         2.79514013093532    4.00057338149151    9.04249220768473
H        -3.42785790945719    3.89433018967063   12.97405295658161
H         3.06844645404870   -0.56307419309223   14.92583299718552
H         3.35165080020814    7.50706153773135   15.53448557357865
H         0.36463026044889    3.48907648866168   16.30540552704413

