84
CSD_code = TEMVIS | q = 0 | S = 0 | Stoichiometry = C34H47IrP2 | MND = 4
Ir        4.49292909266770    0.55627372464626   11.20743391194612
P         2.60049656004531   -0.49285582161995   11.94485491469745
P         5.94629531823535    2.08326404467702   10.30663898657275
C         3.23250765610441    2.06289899870974   10.98238466931821
C         3.49072123254050    3.13866699791063   10.06317146226024
C         4.80442290489584    3.28402500980111    9.55534632696180
C         5.09903435349913    4.23505622790626    8.59805156363216
H         6.10481594822085    4.33656811519236    8.21470143071964
C         4.09303564759657    5.04361670625466    8.08694386403247
H         4.32033661094484    5.77786497692306    7.32820517495707
C         2.78987998188941    4.87762894433047    8.53189450119165
H         1.99974468761866    5.48256514979628    8.10914052926472
C         2.48711510718146    3.94712472662290    9.50456771610232
H         1.45869908137543    3.80605194407755    9.80590131473205
C         2.14430392096294    2.16486645936127   11.93492499947370
C         1.64786076902205    0.96234922614661   12.49400680896611
C         0.60343373349123    0.98002210334597   13.39962530334312
H         0.22827896685492    0.06086662841941   13.82689570738399
C         0.02949966478215    2.18640430047213   13.77574809435732
H        -0.79324515143002    2.19757218412355   14.47574979870756
C         0.53175725541821    3.37615326853747   13.27106753822372
H         0.10801409833599    4.31630601978856   13.59524405454088
C         1.57767644501357    3.37102000506842   12.36939916693935
H         1.98562067146735    4.30782665514747   12.01819060399192
C         7.10437549765674    1.63575174329793    8.92334552222471
H         7.55052729031850    2.54631863101528    8.50947050906320
C         6.28454443856574    0.94629239109607    7.83773099352587
H         6.91974658411026    0.64838977778655    7.00469732464315
H         5.50828564972861    1.61137981255649    7.46173210634310
H         5.80689503020816    0.05638032040257    8.24272337593077
C         8.19783100728782    0.71799009522553    9.45989753937716
H         8.81622692586846    0.34328858993954    8.64515955365853
H         7.75521770364262   -0.12946771047078    9.97989579324334
H         8.84119821902485    1.24103020089267   10.16432951352560
C         6.97292168124614    3.15870878177544   11.44215969463972
H         7.55573006552002    2.45567422376744   12.04750245359781
C         6.00291126178019    3.91591229145546   12.34701787739648
H         6.52658343893572    4.35528025112717   13.19413537280140
H         5.22864383807114    3.24763051194961   12.72310185738631
H         5.51699098821857    4.71537483560436   11.78982712000239
C         7.91851140409386    4.13551577932137   10.75225243138676
H         8.41917420027666    4.74275806712828   11.50592733799216
H         7.36778188883339    4.80642904118239   10.09670140633189
H         8.68453523321107    3.62396507605686   10.17504728134419
C         2.44095768439130   -1.69433779748162   13.35943874817183
H         1.38194681593800   -1.84244974998663   13.59850946544162
C         3.15792945737635   -1.10244266309202   14.56757406169637
H         3.03493458058488   -1.74593964430733   15.43757509369692
H         2.76898422662492   -0.11442833547381   14.80919313734032
H         4.21903387890408   -1.01347215614358   14.35027477577029
C         3.07219522060111   -3.02867459979044   12.97507583832336
H         3.06050469047719   -3.70863434370482   13.82584182499061
H         4.10846690613270   -2.87467291148253   12.67811338297247
H         2.53784396986538   -3.50456508264232   12.15480877778900
C         1.50384948677867   -1.24703740868046   10.62510847247786
H         2.00222665279497   -2.17753425261840   10.32339802479925
C         1.47127659812693   -0.30726600395049    9.42298896321935
H         0.92359883235677   -0.76103502541113    8.59797544713859
H         2.48014857225374   -0.07477717835273    9.08257904167570
H         0.98246324283139    0.62912323183727    9.68649104794193
C         0.08711890253357   -1.56323244381925   11.09115138254428
H        -0.49671347625225   -1.94448332715952   10.25381375496471
H        -0.40207381945929   -0.66436397880041   11.46175349469069
H         0.07767661563011   -2.31842813530802   11.87347039768407
C         5.95617745263244   -0.66838904802064   12.06036531636459
C         6.60706236721872   -0.44676704862558   13.28105481648041
C         7.56621931495474   -1.32770131829046   13.76096479634506
H         8.04919489301310   -1.11912866196734   14.70764713639176
C         7.91248363622572   -2.47206867229014   13.05927980314669
C         7.25495695211928   -2.72177331918269   11.86688305600060
H         7.48617411347651   -3.61858134181948   11.30465018053608
C         6.29629818800446   -1.84487221563628   11.37501985880083
C         6.26498918113973    0.75303338186387   14.12583404626188
H         6.07998554242074    0.45647788697128   15.15784401513168
H         5.37305656901410    1.24384534514827   13.73440436598895
H         7.08699763949533    1.46811291982386   14.13227426213093
C         8.96877645832328   -3.40253256848266   13.57979224797609
H         8.91484504113681   -4.36893133305851   13.08298522970745
H         8.85658140046359   -3.55274392712434   14.65248988053720
H         9.96080310160192   -2.98387624946102   13.40338915565522
C         5.61267109354548   -2.21332129503798   10.07840484474604
H         6.32897197385448   -2.24098527986335    9.25613389409669
H         4.82454955414624   -1.49028915174118    9.83455183566883
H         5.15916958543341   -3.20239560364085   10.15465261783824

