97
CSD_code = TENCUM | q = 0 | S = 0 | Stoichiometry = C52H39Cl3N2Ni | MND = 4
Ni       12.40829021296013    5.25910272861532    0.21362760818945
N        11.53030366977859    3.46272208378858    1.47325538298798
Cl       11.07317129197851    6.71807452502144    0.74878022887717
C        11.83987143593702    1.06946401265350    0.00108402802748
H        12.20621991719352    2.01110217584986   -0.42929859578403
Cl       13.16581628767081    4.20947156787518   -1.37425126732753
N        13.66384281645405    5.23794715456184    1.47725840308165
Cl        6.96386688573950   -0.25269245403786    1.35032220983853
C         7.70964433596494    4.79914946097802    2.78730626480049
C        10.54415712018857    1.38583547774568    0.71876823990298
C         8.29541803905350    0.85471317797309    1.35809649948414
C         9.46425609303566    0.51701999434261    0.69909186125576
H         9.53201690813002   -0.41555098108376    0.16118511262384
C        11.62050236439295    0.11756480844271   -1.15444469250155
C        12.40188567700497    3.40110484491191    2.41016769182892
C        10.43851744944036    2.58490778017172    1.43274259498295
C        13.53751009937514    4.34753211365486    2.40852475052139
C        10.79144034006294    0.53347041106721   -2.19231988374385
H        10.33444774042202    1.51122949901887   -2.14292722084220
C        14.36092077307846    4.05616767851165    3.56799438848063
C         9.23307633121170    2.95316361943411    2.04085238169482
C        12.86937994166814    0.59965247914333    0.99924974739033
C        13.73228245915988    2.97511791287810    4.23349618369925
C         9.82230339762997    4.23276352510634    4.06901605178199
C        11.84598359350760    1.50152304279304    4.12410509614905
H        10.94108505474413    1.13228212724493    3.66898458582161
C        14.10938669819368    1.22142224913734    1.05686889500999
H        14.33158695269410    2.01536097599600    0.35906916307673
C        12.55528559191019    2.54376869558493    3.58329122157758
C        15.92335066277887    5.81646758662225    0.77919427800445
C         8.16620705308830    2.06857698781122    2.00945641208804
H         7.23295895069057    2.33198331306546    2.48197202806574
C        14.61019420995549    7.38889914232974    2.11322781705117
C        14.76617070999524   -0.19957357404254    2.87418922460188
H        15.49991687873967   -0.50642869317167    3.60491219751291
C        10.81685621784963    5.14855369483282    4.38456936108296
H        11.06335585401846    5.92248579052849    3.67259379108202
C         7.05930841515872    5.09659506849516    3.97539437415850
H         7.57122904120204    4.97565200481282    4.91863453300234
C        14.22530846379976    2.39955311781637    5.40680502543348
C        12.21561268956781   -1.13251386749754   -1.23424098887460
H        12.87615023639047   -1.46998771229707   -0.44910838073290
C        16.78526912754456    8.01400053275306    1.27733324105404
H        17.57248506013529    8.74693046610590    1.18831423125289
C         9.13681382005266    4.30034938375939    2.72634008623507
H         9.69561311831220    5.01570329156596    2.10804459963349
C        16.92876656126017    6.76805130643379    0.69497421204507
H        17.83673576159407    6.52179654922450    0.16536003788177
C        14.73247096888969    6.15510578108119    1.44779476522820
C        12.59245928595314   -0.43448989745936    1.88522158175536
H        11.63191673223987   -0.92793922427162    1.84583608371307
C        15.05043787120833    0.82831645734539    1.99241129998423
H        16.01151897815313    1.32156339093262    2.03357968662794
C         5.08141065918405    5.72672354520683    2.76675170861828
H         4.06202797387915    6.08341127878849    2.76057095669639
C         9.49288058575165    3.25008201688885    4.99471965947350
H         8.71654992044052    2.53579575653703    4.76084916831821
C        12.32686287108434    0.90906057208730    5.30702372670962
H        11.76397420963613    0.08944808546261    5.72824073908444
C        13.53773205875404   -0.83512043911890    2.81260769533929
H        13.31480681668565   -1.64498066893965    3.49192625494323
C        16.11793450185640    4.45328792261606    0.20568238159242
H        17.11414734593369    4.35507324428760   -0.21638957591014
H        15.38344780363465    4.25931151925480   -0.57794881042737
H        15.98443881853619    3.69465223556970    0.97664964866049
C        15.52082085961674    4.57519587607119    4.09553785763079
H        16.04213084582070    5.39798575663823    3.63082246743546
C        15.64368117105655    8.30686086147843    2.00067927501501
H        15.54721503762659    9.26346772102708    2.49172193299859
C        10.14949427094307    3.18403876730863    6.21061958523298
H         9.88063255598928    2.42050629367728    6.92598172395256
C        11.14065108766580   -1.53956193653624   -3.34336882319907
H        10.95154926874120   -2.18459423263332   -4.18867761760970
C         5.72759792476584    5.44219365954079    1.57457097097575
H         5.21394201639287    5.57958708292177    0.63432460507572
C        13.41413448944732    7.69098036696723    2.95192074716723
H        13.51788057674003    8.66111357317923    3.42977799875668
H        13.28824850912162    6.92976608541976    3.72171619975489
H        12.50956204749694    7.69488363967059    2.34125525487339
C        11.48151778977079    5.07520523491780    5.59633841424426
H        12.25807519817852    5.78949803543538    5.83168008634927
C        15.41710252981621    2.95656711899943    5.92068381309020
H        15.84576999926384    2.55231126804662    6.82589096811630
C         5.75260514450324    5.55704441603396    3.96372384744901
H         5.25906245557427    5.78402736915762    4.89770983436204
C        11.97575732855047   -1.95547540914912   -2.32275589997289
H        12.44461820223397   -2.92751636213216   -2.36979464296443
C        16.02912585626506    4.00529154839764    5.27590431443029
H        16.93996836191214    4.41616411708336    5.68601563811039
C        13.47055798737639    1.32895388621016    5.93734221272548
H        13.80302297953035    0.84478754646906    6.84381788927802
C        10.55007737403070   -0.28769119677826   -3.27633477750214
H         9.90186331559718    0.04865664576623   -4.07260218356865
C        11.15102754050391    4.09139078276607    6.51157572375619
H        11.66960816757198    4.03336879155009    7.45720202697120
C         7.03130326509983    4.98616429366871    1.58634142314922
H         7.53570613025222    4.76854174602566    0.65588915204415

