31
CSD_code = TENDOF | q = 0 | S = 0 | Stoichiometry = C8H16F2MoO4 | MND = 6
Mo        0.09083137029207    1.42324492262518    5.14124454066788
F        -1.54093627827790    0.80925585793756    5.61440154950208
F         1.65974190455981    0.98343188487880    4.36117904810970
O         0.55580329025438   -0.80918883926510    5.90720818372863
O        -0.59034061610780    0.00391930059696    3.32366350376203
O         0.63579555058813    1.92795753832501    6.60752939447618
O        -0.34873465505215    2.68849568811395    4.18853648306041
C         1.90346687241605   -0.91536163163823    6.37937347159945
C         1.92260215095133   -2.04394346751525    7.42819521700047
C         0.44985236229863   -2.45116869587966    7.55564495889440
C        -0.27401130800504   -1.23398355030644    6.98423226908530
C        -1.92010500858846    0.32510095554053    2.89722349201888
C        -2.01400299469273   -0.03959649444684    1.40323498806112
C        -0.60570359518429   -0.53660573091948    1.05947918042694
C         0.23480618895320    0.09505150103793    2.16614286324708
H         2.20502728954528    0.04349968086814    6.82163293589409
H         2.53207372272983   -1.12594726808452    5.50948758757744
H         2.30752235082227   -1.67168955770069    8.37559680716053
H         2.54455240510036   -2.87856904117122    7.11074166179743
H         0.15688451654881   -2.65876524805994    8.58137998946834
H         0.23933163072581   -3.32936476923741    6.94453903453240
H        -1.26249555694876   -1.46045447470564    6.57780299780092
H        -0.35289131801951   -0.42927631988923    7.72991836976540
H        -2.09986936508600    1.39624063404542    3.05792949693912
H        -2.60425896878595   -0.25419180519693    3.52423027267524
H        -2.26754670643876    0.84101497268114    0.81594270801608
H        -2.76818317006052   -0.80227296818134    1.22000756183022
H        -0.55381741397011   -1.62372268835364    1.12816733411374
H        -0.27993355199939   -0.23035491735147    0.06896351207321
H         1.16432746287011   -0.44022831409871    2.37408378136932
H         0.45331143855845    1.15087284535067    1.94838680534846

