113
CSD_code = TENFUP | q = 0 | S = 0 | Stoichiometry = C58H48ClN3P2Pd | MND = 4
Pd        1.95877741007564    7.27093337749277    3.40181963372617
Cl       -0.37871958617235    7.47936581371519    3.22825975096431
P         2.27380062786977    9.37528408298685    2.63366832536347
P         1.97248068085749    5.09005231328851    3.99510112529712
N         3.72240235306678    7.98853966749725    6.28499929732164
N         2.51202474599386    7.99029255673494    5.86000412479845
N         6.94557832192703    7.56107656359593    4.96722771567279
C         3.91614606300802    7.04399113283238    3.11317958068131
C         4.40720486726045    6.61714036903232    1.88561642632151
H         3.72036374854975    6.36955515446645    1.08049148589349
C         5.77365724411080    6.48422992313753    1.63748754870342
H         6.10025059059953    6.14025451451404    0.66564017831598
C         6.71500281218560    6.77688906209105    2.60524542058200
H         7.77066303706874    6.65976299125192    2.40943736273511
C         6.24184556736952    7.21036883255475    3.83458076320347
C         4.86126037804409    7.34643058225622    4.09174797032724
C         4.75846186243909    7.79527523782804    5.46007330851224
C         6.07090554760604    7.89937508431269    5.94904105595609
C         6.43467121335051    8.26670574509088    7.30290238551136
C         7.43402607349921    7.59106561453125    8.00612412482561
H         7.96127238016388    6.77263754272853    7.53867233583334
C         7.72007348698427    7.92928174709793    9.31506460211186
H         8.49368941268817    7.39636934032330    9.84910212931148
C         7.01353874533520    8.93978281218358    9.94657555226800
H         7.24140457308610    9.20180304771271   10.96918972951327
C         6.00869461138000    9.60521478351046    9.26270535709506
H         5.44867844766042   10.38716392474577    9.75457870803738
C         5.72010140127584    9.27543121492229    7.95293075606020
H         4.94298903271554    9.79225961503895    7.41325569486526
C         8.37378827776677    7.70123305502228    4.99964045505744
H         8.71280963314813    8.16433937302868    4.07119726978410
H         8.86425480326743    6.72843992396653    5.09898719093981
H         8.66338537306366    8.33458443067037    5.83652913550212
C         1.58609189149760    8.11864838421673    6.89521719407834
C         0.23675445558574    8.24944496511511    6.55624562459433
H        -0.05217396085359    8.24643225319316    5.51232385155520
C        -0.72217764550125    8.37267696948953    7.54261204240291
H        -1.76039200217282    8.47230713192735    7.25906338212135
C        -0.37133826111202    8.36480414476011    8.88656299557865
C         0.97568672347956    8.22777819571003    9.22172241068504
H         1.25997542375565    8.21414986423719   10.26536880828160
C         1.94342015247905    8.10609661392195    8.25093024348805
H         2.98535734336857    7.99409622041307    8.51152121838574
C         3.78880450601914   10.21066647036207    3.21389825787432
C         5.00113308159173    9.95326560186530    2.57771316028579
H         5.01918452470433    9.35359172662055    1.67834106017532
C         6.18352261364900   10.44590348064539    3.09621382365283
H         7.11504557089748   10.24005596740176    2.58802092314621
C         6.17741451900590   11.18809236922495    4.26540771817425
H         7.10357456508429   11.56002437296447    4.67930308726090
C         4.97653356523005   11.45277302205094    4.90115929034650
H         4.96481202529319   12.03730059540887    5.81002872585109
C         3.78997131652462   10.96798185899441    4.38093148889710
H         2.85957529882496   11.18051343563648    4.88668882723845
C         2.44293030372183    9.37154988150227    0.82511328844830
C         3.07391352147052   10.37996058170728    0.10261876477067
H         3.51180041599276   11.22190029885059    0.62197384974786
C         3.13797943468236   10.29935698898496   -1.27674631234398
H         3.63158145406780   11.08035047386873   -1.83730050471350
C         2.56776655588018    9.22480982695497   -1.94173975922720
H         2.62392303398236    9.16866933032836   -3.01911827495663
C         1.92141674064230    8.22875185883127   -1.22789084613106
H         1.46694012662661    7.39830102746712   -1.74846236230901
C         1.86028900830670    8.30290908888843    0.15153053456397
H         1.34311047772186    7.54068203833717    0.73440859225521
C         0.97252708105113   10.61824067758964    2.91535631347355
C         0.41149758651213   11.38044838803657    1.89783914723574
H         0.75637554523754   11.27156879213039    0.87961699125460
C        -0.60509880473306   12.27409309393655    2.18625773245463
H        -1.04101176418643   12.86075453523558    1.39030520309717
C        -1.07261224631487   12.41016802224376    3.48228186336122
H        -1.87331669585626   13.10267346139127    3.69747124919038
C        -0.52395914838609   11.64414386444465    4.49778733244579
H        -0.89577496826527   11.73257161813806    5.50842759273790
C         0.49059543636245   10.75042743471786    4.21474826355670
H         0.90189720915397   10.12514382438245    4.99553491997296
C         3.27999878293270    4.71976573303392    5.20708689771075
C         4.59211226739685    4.49466239403309    4.79788176709091
H         4.82187123241529    4.40960782856565    3.74472164785551
C         5.60595832190123    4.39760437801727    5.73290630283052
H         6.61939814457190    4.21771497028881    5.40195700056918
C         5.32979475211731    4.54866106467099    7.08142312012205
H         6.12583286928187    4.49215488069984    7.80956837806138
C         4.02849582866528    4.77841060579247    7.49482503543483
H         3.80835615148857    4.90448646595007    8.54469071173408
C         3.00855818043931    4.86061930079202    6.56527797756588
H         1.99449207140860    5.04772394931124    6.89219254825818
C         0.51762054280154    4.27410323131394    4.73510965734905
C         0.17091904091583    2.95522313446793    4.46291045773559
H         0.75768751812926    2.36718807168894    3.77174790856179
C        -0.93801432401987    2.39499720791381    5.07117941961336
H        -1.20651987020205    1.37121574030634    4.85269379793093
C        -1.70612834327630    3.13998141796304    5.95101372510427
H        -2.57383934259574    2.69658697028386    6.41764589686281
C        -1.36656252869885    4.45512754942825    6.22039911877324
H        -1.96600179518063    5.04574445694128    6.89764504707586
C        -0.26217181062055    5.02100173323135    5.61161423726895
H        -0.00808652386418    6.05540685770374    5.79493541488628
C         2.30554374477629    4.02630900678960    2.55973395229223
C         2.98455137051402    2.81351268072221    2.60293221077184
H         3.37933499705721    2.44651007006082    3.54061062755442
C         3.15144992209339    2.07807130484133    1.44228273850296
H         3.68424147721121    1.13842292146402    1.47594029097300
C         2.63447643851198    2.53711431852433    0.24152077235431
H         2.77123368829304    1.95731619921127   -0.65965039003876
C         1.93646492821891    3.73360504450505    0.19767701527364
H         1.52185091309771    4.08413418085777   -0.73639154904840
C         1.77430520951942    4.47412527724310    1.35318873339354
H         1.21712827357822    5.41015428198322    1.34769529169181
C        -1.40504913565922    8.49497006027100    9.96282349091861
H        -2.40294327015286    8.56816589546057    9.53763229777472
H        -1.21740983662537    9.38424180597863   10.56432536040018
H        -1.37187963245723    7.63295082409929   10.62858887778884

