54
CSD_code = TENGEB | q = 0 | S = 0 | Stoichiometry = C22H28N2OZn | MND = 4
Zn        8.89357444875148    1.01670107685516   14.92870210147351
O         9.31570722074784    2.77011752908249   14.43778770116041
N         7.28543610442505    0.81802209149788   13.40407665650802
C         9.96955309064323   -0.58465371858408   15.47878100851944
H        10.43845799052935   -1.09836428627067   14.64579502644422
H         9.34284220919167   -1.31560833646253   15.98068404138246
H        10.76486061889640   -0.33287668705343   16.17268849629516
C         8.73872603636461    3.53086379975995   13.54802052580081
N         7.07513577461697    1.25915567866259   16.15099995173016
C         8.84692075037046    4.93041883131268   13.65976366646205
H         9.42411251338978    5.32246344282329   14.48457507327834
C         8.24380087018915    5.77665888378990   12.75749563046731
H         8.34680395546180    6.84680884176544   12.87482166150858
C         7.50247456097182    5.26525860265066   11.70329579578468
H         7.02445988398757    5.92484518827096   10.99440434145166
C         7.38614065349598    3.89425900617105   11.56931941654987
H         6.81440334907467    3.48748071886278   10.74365887087949
C         7.98968061198666    3.02140962359426   12.46137718956091
C         7.86024712390591    1.53801507414821   12.25097679541651
H         7.25389447544801    1.35328775931256   11.35035957793865
H         8.85493457548001    1.10619851568605   12.07770309278156
C         7.05509855861495   -0.57223017722336   13.03716103644455
H         6.39936078355353   -0.66837512807849   12.16300941350370
H         6.61542817801692   -1.11163945808588   13.87365841853568
H         8.01018829290314   -1.03950417629280   12.79883356011397
C         6.10049605378739    1.49412689230447   13.93862986354866
H         6.35410372962661    2.56008117400143   13.93757069197565
C         4.81316514357379    1.31162242356787   13.12768714143730
H         5.00050814155806    1.56051699779480   12.08225732369078
H         4.47198343335532    0.27517703599700   13.18083601729675
C         3.72545245509787    2.22528426093600   13.68308296398410
H         4.04420912648984    3.26526617423033   13.58798419810044
H         2.80579750612797    2.10104627058585   13.10795417281579
C         3.46755770759547    1.90229595746661   15.15073308707047
H         3.08213722328825    0.88297388698585   15.23633984738060
H         2.71348387850534    2.57928192992229   15.55603488524825
C         4.75164238592008    2.02907028701497   15.96324206263332
H         4.55573807576760    1.78184243657658   17.00882990109800
H         5.11510152579567    3.05839316996414   15.92534508157566
C         5.84841034426003    1.10902383691619   15.40423984994411
H         5.49922462175244    0.06683610062074   15.46902737330169
C         7.11759842076304    0.94298590300106   17.37929085994353
H         6.25652948834442    0.48979674605683   17.88600217294857
C         8.30243358251541    1.12824867054145   18.19106238383803
C         8.43277256461888    0.41775973034606   19.38680846150680
H         7.64582961576920   -0.25585972294179   19.69637487888948
C         9.56838573306665    0.55431589316514   20.16036662640431
H         9.66691183946042   -0.00729825119162   21.07776359846210
C        10.58060451326345    1.41314760112872   19.75966067341752
H        11.46751268821887    1.51906179570512   20.36674231962683
C        10.44985526978620    2.14025729797416   18.58661423878061
H        11.23251998777906    2.81797607797476   18.28171874006960
C         9.32009110631328    2.00409220555366   17.80207096049894
H         9.20450120664850    2.59636452135031   16.90688057502799

