41
CSD_code = TENGUQ | q = 0 | S = 0 | Stoichiometry = C18H15NO6W | MND = 6
C         7.78863705972409    3.36419077560340    1.53465439296478
H         6.86591861906379    3.18800847542547    0.96504367669085
H         7.53040311398826    3.38399484200468    2.60241335421614
C         8.82066690456536    2.32156387356888    1.24221632914655
H         8.64083143207676    1.28181051112061    1.44294655674373
C         9.91220812842011    2.86215219041988    0.73198588471580
H        10.81000989771257    2.35640226241328    0.42870533587811
C         9.77035641174201    4.34617613083569    0.60643140482341
H        10.53375376097481    4.87439377131369    1.19422048407936
H         9.86215576165469    4.67028072790620   -0.43955255466700
C         7.86818861711113    5.81627714951428    1.19929884434264
C         8.54626095935528    6.96915157797716    0.76155756460442
H         9.53908479342637    6.88509349571223    0.34891986478665
C         7.96203547838867    8.20608581081245    0.84800026115090
H         8.50344238198310    9.07114213486305    0.49506809425702
C         6.65492082447965    8.37909495802494    1.33743674450107
C         5.98596309306035    7.22594638573090    1.77635075816058
H         4.99850282254082    7.31660936864081    2.20521565511333
C         6.57256384110909    5.98790819682964    1.72362404484277
H         6.02598705241275    5.13470056842453    2.09176974691365
C         6.02973240358188    9.69210303086870    1.37227441046472
C         6.68757266598155   11.99558771637257    1.41391432831274
H         6.22073971287314   12.25574600043243    2.37204660427547
H         5.99028278907655   12.23974699035426    0.60269815505832
C         7.99679702538678   12.75082889469225    1.24094883759770
H         8.68981480448932   12.48538316250458    2.03515385219715
H         7.81113475419812   13.82011720154541    1.27490284589541
H         8.45028008259855   12.50149066813722    0.28504339411547
C         3.75314426748952   11.66838110839535    2.12901594431030
C         4.29733483287078   10.94196808138167   -0.63011574149187
C         1.95193174193773   10.21523758051055    0.68622097193600
C         3.89345043336322    8.29330328446206   -0.00408596849640
C         3.40596472974934    9.03431470560093    2.76804022597520
N         8.43899687392602    4.59277904666824    1.12359423132590
O         6.97911790205631   10.60874782432735    1.40466185287432
O         3.50136275963472   12.62253281445813    2.71067428873052
O         4.45513793047223   11.46326179996801   -1.63727478237341
O         0.84273050877469   10.37034708711868    0.45470087669849
O         3.81640427514632    7.35443219963695   -0.65051987566177
O         3.04485501089227    8.54909673042759    3.73854195768486
W         3.89752354167949    9.97851086505975    1.07385714726467

