97
CSD_code = TENGAX | q = 0 | S = 0 | Stoichiometry = C36H46Cl4N4O6Zn | MND = 4
Zn       -1.64888992544052    3.92896130210303    4.65191962628126
Cl        5.47422948829333    3.89577926294810    5.09951691558768
O        -0.18193532507791    4.75157789228134    3.95111837682689
N        -0.70606123010544    2.86093155305980    6.02749811469873
C         1.04046750463855    4.50266932792048    4.24839107092492
H        -0.24684051784317    3.07687000760328    9.50320688303126
O         1.06746615920898    5.05333515216515    9.19686269480346
N        -0.64849866401447    3.67846806464581    8.79871163295547
C         2.06835481446249    5.13643126847525    3.48778832885772
O        -0.45598884136853    5.54253585754009    7.57612461061042
C         3.40414607831729    4.95721815131463    3.73298993799939
H         4.14482433679247    5.45931318629638    3.13148903057340
C         3.79126736213328    4.11501122664700    4.77923985163923
C         2.85156357136807    3.46647362710901    5.53716740719171
H         3.16465350424711    2.81972007775065    6.34232543005709
C         1.47466654709538    3.62830461366720    5.28828105859244
C         0.57407369692383    2.91315864693751    6.13356401192719
H         1.05698052143024    2.34611899258905    6.93584911582818
C        -1.44810171529028    2.16675093056330    7.05214984522706
H        -0.81082520000562    1.40654976308720    7.53204330907798
C        -2.68344645586550    1.49727510654474    6.45553544526485
H        -3.25343879562723    2.24398496293676    5.90476651329821
H        -2.36553183109610    0.72404140412201    5.75273270466597
C        -3.57913984585449    0.89961832249373    7.53401597991711
H        -4.45157992630978    0.44112785594145    7.06618168191548
H        -3.04018983761049    0.11991309072077    8.07739026151256
C        -4.01506630906935    1.99188712404933    8.50268550915061
H        -4.67539377453882    1.57777311398057    9.26605697837625
H        -4.56616206248283    2.76182762060903    7.95956378694039
C        -2.78999041412276    2.60966343239603    9.16506057792596
H        -2.26025844131601    1.83963974151246    9.73318124622759
H        -3.08967507884767    3.39439936393401    9.86084529944257
C        -1.83698180625519    3.21016009292244    8.13171159752401
H        -2.30157855873943    4.06273119542161    7.62906289850972
C         0.07233874635837    4.80679894058385    8.55485074294854
C         0.00870818648205    6.90302635232370    7.37004790740244
C        -0.86348347974451    7.41449507711653    6.22860698963143
H        -0.71300214913900    6.79021051423019    5.35255084379489
H        -0.60466736551943    8.44080625085439    5.98673711502835
H        -1.91154966302847    7.36414206315698    6.50988113393987
C         1.48297778502497    6.92853755708587    6.96916418085993
H         2.10022225645827    6.52356913245282    7.76589017121550
H         1.78440460971878    7.95389940842372    6.77373196617133
H         1.63859734390177    6.33845971721762    6.06900428232519
C        -0.22613670182144    7.71988028140321    8.64096855283101
H        -1.27049825067440    7.65250428087317    8.93915507294635
H         0.02066566847839    8.76147780383934    8.45643509275070
H         0.39783705626456    7.34843476028664    9.44959278495323
Cl        1.55333968340767    6.16013289162844    2.20170395528113
Cl       -8.77200636998817    3.89577336086216    4.20431504750248
O        -3.11584507107073    4.75157203188445    5.35272597184125
N        -2.59171483357654    2.86092615793180    3.27634200749892
C        -4.33824766852909    4.50266344278005    5.05545197215107
H        -3.05088547027731    3.07691909864482   -0.19941911546293
O        -4.36518592229073    5.05338042646500    0.10691382604468
N        -2.64931021110246    3.67845792704505    0.50517840547733
C        -5.36613686051409    5.13641514331929    5.81606119689661
O        -2.84186264209863    5.54249157190500    1.72780186887417
C        -6.70192673947314    4.95720173335744    5.57085461636633
H        -7.44260777373906    5.45929362153625    6.17235471826518
C        -7.08904550261760    4.11500256658595    4.52459709979933
C        -6.14934012586269    3.46646702225598    3.76667067220325
H        -6.46242500170377    2.81972128102089    2.96150520046548
C        -4.77244362823075    3.62829628589232    4.01556271137427
C        -3.87185080193206    2.91314270130604    3.17028757139163
H        -4.35475381602470    2.34613109992838    2.36798103204035
C        -1.84968079496003    2.16675598274004    2.25167462684103
H        -2.48695227768864    1.40655154482214    1.77177804679247
C        -0.61432803869514    1.49729281488680    2.84828724682157
H        -0.04433612204554    2.24399886381521    3.39906275666899
H        -0.93224844200818    0.72406051563130    3.55108885797742
C         0.28137289106709    0.89962965481217    1.76981627722934
H         1.15380795465419    0.44113667147007    2.23765737760518
H        -0.25757844890240    0.11992363092455    1.22644486123589
C         0.71731628611919    1.99189071512492    0.80114523626013
H         1.37764575924037    1.57777165864982    0.03777710111519
H         1.26840692514153    2.76183132777560    1.34427004313047
C        -0.50775542091016    2.60968912676875    0.13878586331407
H        -1.03748468258465    1.83966448894849   -0.42933526602859
H        -0.20807595873694    3.39442311635311   -0.55700216495962
C        -1.46079049333634    3.21017194143238    1.17212749617932
H        -0.99622158425379    4.06273177738864    1.67482107319196
C        -3.37030141344552    4.80664877410790    0.74923038832863
C        -3.30645932156159    6.90303058536010    1.93377474604832
C        -2.43428973337183    7.41449271287617    3.07523863940851
H        -2.58478595650997    6.79021096549312    3.95129580336281
H        -2.69309274971702    8.44080667652188    3.31711239646233
H        -1.38622296591893    7.36412069749500    2.79397475341063
C        -4.78071951736799    6.92854877799167    2.33468446432275
H        -5.39798007410565    6.52358721517134    1.53796812346442
H        -5.08212388273510    7.95391631281193    2.53011845703933
H        -4.93634855127061    6.33847621846521    3.23484736983803
C        -3.07162951647893    7.71990253692121    0.66286055133283
H        -2.02726858925931    7.65250932163588    0.36467947689042
H        -3.31842067371036    8.76150675883582    0.84738567788342
H        -3.69561334455136    7.34845648888234   -0.14575532897338
Cl       -4.85112557728163    6.16011028940033    7.10215171962104

