58
CSD_code = TENGOI | q = 0 | S = 0 | Stoichiometry = C18H31N3PS4Tc | MND = 6
Tc        4.23624687546024    0.68049034002395    2.11021773446924
P         4.23760399164613    2.26983073379691    3.87745512479644
S         4.67562398749994   -1.39560315391892    0.91708728635602
S         3.08617554725643   -1.12181389029963    3.29030226208632
S         6.26739307996760    1.69728295689818    1.09274432386130
S         6.47128997752747    0.02999292778351    3.49636840878486
N         2.98499512934676    1.48476176129779    1.29085110183205
N         3.79554543622857   -3.49674066152498    2.29806039598667
N         8.56346531362343    0.84623702540279    2.10373854436114
C         3.83677863380360   -2.17209647344296    2.17231011083133
C         4.43525783935868   -4.35289920908188    1.32008009460627
H         4.38151833794490   -3.86460174591603    0.34275104507973
H         3.87503568771847   -5.28927668421443    1.27350042100336
C         5.89421718195029   -4.62142400069918    1.67887791635605
H         6.34532701888092   -5.27146653602788    0.93448518833122
H         5.97134234010197   -5.09650323028653    2.65471346745551
H         6.44865190007486   -3.68657146032387    1.70306171155076
C         3.08133952082538   -4.11985582535701    3.39292770454893
H         3.15362112211059   -3.46799912844729    4.26797756307107
H         3.57425763027890   -5.06833350634776    3.61981559283626
C         1.61311106773739   -4.34748365672571    3.04579755606386
H         1.10593592741083   -4.82131077969335    3.88135347014397
H         1.51776321510878   -4.98580823074120    2.17012437772619
H         1.13083087496315   -3.39577677784172    2.83816043873351
C         7.22888878458215    0.84785401362271    2.22439918035056
C         9.21955615563201    1.51933595778348    1.00270083012886
H         8.58147189064917    1.44423786689296    0.11798612084911
H        10.15986303424789    0.99956920273504    0.80393099348314
C         9.48089035795581    2.99024846222535    1.31600945344591
H        10.01428282916683    3.45255507119398    0.49047440297171
H        10.07825211006770    3.09216655875910    2.22010154699098
H         8.53728957184121    3.51136021684568    1.45531078043331
C         9.39775387822486    0.14587625154962    3.05750768366673
H         8.91717460145292    0.18736605093222    4.03971674291443
H        10.35497808392751    0.66915823250538    3.11735322048278
C         9.61075985039865   -1.31202305368357    2.65861898294566
H        10.25952988033371   -1.80401266593057    3.37807954309788
H        10.06253211912142   -1.37915289263567    1.67129195181748
H         8.65679969597978   -1.83350080722214    2.63891099884364
C         4.24577934263363    1.55258115863436    5.54471902441999
C         5.34223436649227    1.61732902095230    6.39526997579889
H         6.23464315937610    2.14701439215701    6.09623725976269
C         5.29919073873943    0.99242715921690    7.62945915096981
H         6.15500825620942    1.04576374637113    8.28724395446511
C         4.16916562735313    0.29385264589808    8.01855342931868
H         4.14285931453114   -0.19703696768387    8.98050317964353
C         3.07709058604086    0.21626619877129    7.16845912201015
H         2.19822331593493   -0.33753037612227    7.46447738206086
C         3.11564264151674    0.83880226586244    5.93567994131723
H         2.27724745254878    0.76483579248324    5.25605751340489
C         5.56524776004159    3.53089403506734    3.90808734901718
H         6.54885370136937    3.06465695512402    3.93779381412899
H         5.43786936651287    4.18713498005114    4.76905284891922
H         5.47910440595299    4.10323194696615    2.98346741373133
C         2.76426289247757    3.34777339036152    3.91381466982770
H         1.87229148299157    2.72622642361320    3.92291598587495
H         2.76498389834324    3.91949397163680    2.98726871906119
H         2.78365121051134    4.00761400078370    4.78068499299602

