66
CSD_code = TENGUO | q = 0 | S = 0 | Stoichiometry = C24H32N7S2Tc | MND = 5
Tc        1.45559000708439    3.82116695969813    1.93024642313379
S         2.81896554951175    1.82921361787923    1.73255277154108
S         1.22262368123349    3.20823079283438    4.29449331018952
N        -0.03915346491708    3.36302663560724    1.26455916571588
N         3.33280364883316    2.74006118411359   -0.73797860055443
N         2.43834384214376    4.62177411574347    0.31538932701254
N         2.59264676412879    0.60017634309431   -0.59535336965141
N        -0.09554591275041    5.52804540486229    4.42099802900021
N         1.14391383711706    5.78496199883484    2.47356372943637
N        -1.31431896937950    3.66820808302842    4.89989588636047
C         2.87370420889480    1.75713393793921    0.00904355617432
C         3.27728401741752    4.03013125064907   -0.51818358847652
C         2.59081579991489    0.53941216088048   -2.04222405559856
H         3.42823828278455    1.14181864551248   -2.40168943527818
H         2.74761190460708   -0.50003317988061   -2.33869804640560
C         1.28252893507568    1.07357613326721   -2.61908183995588
H         1.31078461337266    1.04515952421478   -3.70508937253306
H         1.12938771766160    2.09896567877680   -2.29244305776317
H         0.44102166930434    0.47834463533468   -2.27355905035939
C         2.12569471713173   -0.55271979461612    0.14073622852912
H         1.45848688087153   -1.12220487016218   -0.50978514588401
H         1.55716709224948   -0.20396297118490    1.00774017739615
C         3.28595726162185   -1.42719673400358    0.60823342766254
H         2.90524493791134   -2.29321960738014    1.14216542122988
H         3.92661671856058   -0.85923392263860    1.27700631505543
H         3.87765783654075   -1.76795616037839   -0.23873655988070
C        -0.16829720035895    4.21228365353902    4.49453078335036
C         0.62819776449189    6.24435669017946    3.60184649678301
C        -2.51326496350328    4.48140322454824    4.89527907847516
H        -3.20496916607416    4.07755764054001    5.63835149840838
H        -2.22594760514703    5.49471968735736    5.18463985408534
C        -3.15050372686967    4.50070447970993    3.50804763774357
H        -3.98382362180153    5.19744038257397    3.48642284110273
H        -3.51103520994758    3.51234792940374    3.23470312938664
H        -2.40931268001063    4.80309840036285    2.77132122866102
C        -1.44933331942364    2.24236876511191    5.09792152048159
H        -0.81159334187732    1.72707115594019    4.37270832097787
H        -2.48848826572414    1.97077103153195    4.90516681210898
C        -1.04921974294764    1.83867021773999    6.51425981087563
H        -1.17937014121285    0.76818337857535    6.64545619958746
H        -1.65892938321806    2.36042052889541    7.24883406480944
H        -0.00540194873219    2.08639974922230    6.68581072598440
C         4.15983848953488    4.85292883797683   -1.37600979723932
C         4.48688970811585    4.41661784293827   -2.65663148057105
H         4.08174665628560    3.47927129018662   -3.00308521290361
C         5.30332817535673    5.18161537855666   -3.46718053526923
H         5.54653587189672    4.83890658788720   -4.46205674800233
C         5.81025627771121    6.38656557248684   -3.00718746662029
H         6.44996463338851    6.98326339873626   -3.64028169136992
C         5.49887921207293    6.82242838698302   -1.73050372240200
H         5.90059434680661    7.75572142591220   -1.36364037671648
C         4.67586253939041    6.06271078581786   -0.91919531040036
H         4.45948231413487    6.40375104088792    0.08448601561346
C         0.77282442285924    7.67065577400919    3.97400238448142
C         0.82292650342727    8.68132797608691    3.01832160686782
H         0.70953007502112    8.44758218144194    1.96824863098093
C         0.97559241506121   10.00027373483814    3.40654318606163
H         1.00623774172010   10.77866601128347    2.65812356955195
C         1.08599669074415   10.32376182984970    4.74836604841227
H         1.21132501578248   11.35397189726118    5.04706702616204
C         1.02659316021633    9.32385091370280    5.70583295804446
H         1.10517790911792    9.57342058420124    6.75363633395620
C         0.86519465818808    8.00625469515967    5.32250224754315
H         0.81361299386845    7.21815816415668    6.05809500206500
H         2.37932425505649    5.62278934436033    0.13245242909414
H         1.50620690984211    6.53872956808959    1.89269325375670

