30
CSD_code = TENOCO | q = 0 | S = 0 | Stoichiometry = C4H13CoN6O6 | MND = 6
Co        1.32304675192719    2.61887221958776    1.27298077055851
N         2.64855371778115    3.35539692698581    2.42815396104286
N         0.02965342422606    1.91250100545763    0.20650142887500
N         0.92033946976426    4.26246941996210    0.81869366759185
N         2.83038841176124    2.25596787061725   -0.11440759116772
N         1.85086522345930    0.64420913064190    1.85314631833939
N         0.04275679744625    2.39062110274604    2.90694414281249
O         3.73735848265878    3.69082591398018    1.96013842350382
O         2.40685781102715    3.46549967959705    3.62965674499228
O         0.27685853987172    0.92033002407270   -0.46847515639541
O        -1.07241729337320    2.43104769281186    0.26871407695470
O         1.40269950479080    4.64394149936132   -0.21688983613807
O         0.20632341635207    4.85531876344018    1.58064443704434
C         3.33629096314934    0.87898771033895   -0.00678551815015
C         3.23893232229723    0.42407452143091    1.45329094805384
C         1.48494016645036    0.45581659853804    3.25396750201961
C         0.06374302792828    1.01013435198632    3.40898963004883
H         2.60768484502538    2.47139657763420   -1.08453208057244
H         3.56421183412944    2.91135705257215    0.18143708062697
H         1.27872045894981    0.01683319029463    1.28361000225402
H         0.45916072120049    3.00621412105276    3.61410518851732
H        -0.91337268982797    2.70775564396211    2.74859443065651
H         4.36889539288326    0.80180771271912   -0.36103659203841
H         2.70133420341923    0.23381999855271   -0.61908575201689
H         3.89746324271947    1.02838007258432    2.08162275819753
H         3.53972251534529   -0.62727404936626    1.54762310901830
H         2.16957578927989    1.03117679381883    3.88176606313476
H         1.52560426986345   -0.59630414915395    3.56281319707620
H        -0.62589571641844    0.40738329198247    2.81060786737180
H        -0.24929560408728    0.95633931179096    4.45691077778816

