74
CSD_code = TENXAO | q = 0 | S = 0 | Stoichiometry = C33H30Cl2N3O4PRu | MND = 6
C        19.11863871954317   17.38404393764061   11.05974536324415
C        19.36197455338968   18.34654936372393   10.10045376749043
H        20.19922108747956   18.25033665324223    9.43055005968499
C        18.48428329131792   19.41634662028255   10.00115705185984
H        18.65443173769811   20.17196538851439    9.24946791937438
C        17.38955762753098   19.51734767498101   10.84341934884888
H        16.71529510333563   20.35626428420775   10.75183959606630
C        17.14073211032757   18.54064970138475   11.79625154045709
H        16.27935783111818   18.60814334163743   12.44450707599943
C        18.00734974665158   17.46951809814257   11.89323651108175
C        17.91923306502838   16.29555292029744   12.82371814264799
H        16.92987112823320   15.83719276218075   12.82388159681646
H        18.16553127664514   16.58321278373838   13.84794943968565
C        18.96148184709087   15.31760610007511   12.27545647096233
H        19.48125614853978   14.75942762896141   13.06161747124963
C        19.90047350599812   16.11545322971386   11.33209569161346
H        20.89800782530635   16.31450130909414   11.73263777486936
C        19.04029030315593   14.39058123258636   10.25110632012052
C        18.79303372952154   13.50955805908139    9.14004573510331
C        17.76765064092648   12.58233201606999    8.97424209283622
H        17.04264989160827   12.44493538929659    9.75935248692029
C        17.71486616836572   11.86111112518501    7.78855057009057
H        16.92545899329976   11.14364575450337    7.62887159043736
C        18.68566823643722   12.05298277950534    6.81458212847307
H        18.68519083106506   11.49901967912901    5.89039061987745
C        19.69426361626951   12.98200628002454    7.05839103488268
C        20.85551818028829   13.27925460548340    6.26264795469799
C        22.87590168852219   14.07561202434433    5.82465211595041
H        23.18987535706514   15.10076998192576    5.60809411250233
C        22.33871450980728   13.29003582135613    4.59738666600976
H        22.13258706265506   13.91694560075634    3.72446586825815
C        23.34087202501582   12.16696641232632    4.29552481329045
H        22.81589049844161   11.22123649032267    4.15436760441261
H        23.90236860074687   12.38580999132261    3.38528586644276
C        24.24206630601052   12.14050538705893    5.49576000937182
C        25.21128992510831   11.20825281395658    5.81253060715206
H        25.40334715058219   10.37246001177529    5.15591845274167
C        25.91980963202235   11.35643827343369    6.99566855214799
H        26.67312670819841   10.62871497899903    7.25919332918331
C        25.65873944008055   12.41627603282253    7.84866151103626
H        26.20125858022065   12.50449777613901    8.77728702597296
C        24.69308896541861   13.35850808700770    7.52977027138506
H        24.46419183447260   14.17042410007478    8.20151066442165
C        24.00159118315427   13.21535738986526    6.34430967791413
C        23.95168006121321   15.54652477493526   11.18491291260434
H        23.36026733108350   14.62817517543358   11.17618367218312
H        23.44756473866870   16.31049523928320   11.78240554615920
H        24.93669174569023   15.34735331573452   11.60576550876593
C        23.21664591832440   18.86219016286505    9.65229166959765
H        22.74300643691453   19.50033885365864   10.39810655075649
H        23.32313052579230   19.41053322822597    8.71478812584256
H        24.20578888496129   18.55657141974443    9.99976055772461
C        23.94576777032405   16.91064544717655    7.46972950671864
C        25.31795863570069   16.72524050086098    7.37835288874868
H        25.84834928338414   16.22844597768415    8.17520235587263
C        26.00126796029958   17.18223431041232    6.26420297030563
H        27.06901276407471   17.03477858900277    6.19292213968372
C        25.32131864787921   17.82460874958840    5.24281468585713
H        25.85927546426151   18.17852345299573    4.37533054076938
C        23.95088644019909   18.01261098059467    5.33344690982282
H        23.41810631691692   18.51336552852557    4.53841677437972
C        23.26180932464835   17.55300019708722    6.44202496470922
H        22.18839759053014   17.67216817679138    6.51840156594155
N        19.98633763664550   15.27252640361411   10.15626309898204
N        19.72436051955206   13.70404966322413    8.19126793998402
N        21.75892717126384   14.07276717334846    6.74650867906303
O        18.35235186018729   14.35760060964502   11.39873143949958
O        21.08539232957389   12.76126941864072    5.04939340278332
O        24.17406453766995   16.01084694145374    9.85843369681470
O        22.36336274195740   17.73818975650934    9.47436992509454
P        22.92744309245389   16.33850972703847    8.87680243627445
Cl       22.13389596566769   13.12953362765569    9.74666312206171
Cl       20.07023690298936   16.54990250507636    7.23614372690604
Ru       21.14969473739188   14.89735020099075    8.51331018249914

