73
CSD_code = TEPGIG | q = 0 | S = 0 | Stoichiometry = C32H36N2NiS2 | MND = 4
Ni        6.13563663993018    7.79067323663363    2.66857604494208
S         4.00893840016661    7.72328649666296    2.54689596406132
S         6.42054473554314    9.64024959744669    1.65292481523015
N         6.09836665583296    6.13520225605696    3.47782155255230
N         7.95503364202052    7.73835592494171    2.99740451132664
C         3.77468008934654    6.21686788302150    3.35023255401697
C         2.50734795663507    5.69131779086274    3.59832934701960
H         1.63881695702475    6.26252301636528    3.30852635572949
C         2.38834646312473    4.45856684569377    4.19362501830979
H         1.41209163440643    4.04202170430192    4.38842747393174
C         3.53384704896043    3.72793513266791    4.53816934402890
H         3.41998007428692    2.75308221394430    4.98947598872813
C         4.79045094893165    4.22336735531812    4.31099123267936
H         5.65732207424229    3.63767827128038    4.57318811046712
C         4.94913640997244    5.50146206205763    3.72599580135924
C         7.38814463621785    5.52085343327754    3.67372979657936
H         7.39333139972012    4.85660611476902    4.54675062558580
C         8.62212590285549    3.50623016078361    2.57560372361858
H         8.87042519036388    3.25774683564399    3.60726266966469
C         7.79671015372548    4.75116205544010    2.43788952474409
C         7.48789850491655    5.13770625221566    1.20369204521015
H         6.90074159041620    6.03754435635242    1.00431998503441
C         7.92553210890783    4.31887227029793    0.02600779118911
H         8.53510273369648    4.93459877677603   -0.64290551337592
H         7.05168824341247    3.99280860641808   -0.54503126602239
C         8.73563181238771    3.11884417426306    0.51209492931589
H         9.09384538972452    2.50580826344417   -0.31565708666147
C         8.00901962602132    2.39592964376735    1.67454470734239
C         9.75833806862726    3.62506019766295    1.54160363764457
H        10.58090228252758    2.93735729512280    1.71545707872350
H        10.15235267090577    4.62658122070032    1.37709041531975
C         8.60085817442849    1.01905245937879    1.96237458651891
H         8.24976139114379    0.65535331211888    2.92657884951795
H         9.68620012641195    1.03141046620875    1.97958749657030
H         8.28231932965351    0.31400913211263    1.19687229693873
C         6.49343815180198    2.25656971771052    1.61435908058960
H         5.98847357372894    3.21609860224780    1.56138729932130
H         6.13292877521950    1.73691923810337    2.50034717544023
H         6.21449133973121    1.67052462242631    0.74071506644324
C         8.12996333560906    9.74710545471129    1.82948204101495
C         8.86868483770712   10.80625048790169    1.30340365675378
H         8.35858045459297   11.56570326948302    0.73085947216051
C        10.22178037874703   10.86973681385306    1.53262167567257
H        10.80234354808343   11.68657938680378    1.13216090033744
C        10.85440006667900    9.88247946971684    2.30113353138486
H        11.91599206371620    9.95986711308954    2.48583708646479
C        10.15375575992128    8.82827865212893    2.82405905339902
H        10.65803243480251    8.08639078604004    3.42324093239664
C         8.76445905624790    8.71638928884084    2.58323112209620
C         8.39097395993576    6.69155193531749    3.89179483499657
H         9.40861987624598    6.35205507776317    3.65607401245102
C         7.17287662677837    7.99533722382195    5.79130645620643
H         6.44671555179568    8.24181435565047    4.99792706490868
C         8.33075009652973    7.15914699213238    5.32780826914921
C         9.25788444142293    6.86831638810663    6.23475850302102
H        10.13603787107452    6.28363179957314    5.99848741512101
C         9.09894127776995    7.34008044917084    7.65297053815884
H         9.95984619904540    7.95616691267793    7.93161688884316
H         9.08684377133260    6.48235441479074    8.33177399711668
C         7.81496324625113    8.15701329271618    7.78388157628059
H         7.67611418579253    8.53889827292570    8.79606374395201
C         6.62202732241285    7.41947197518334    7.12364587695278
C         7.77429419410937    9.15101996324569    6.61281358770883
H         7.08901363488418    9.97945591745815    6.76361959036249
H         8.73248602418290    9.53438796005526    6.26581821326580
C         5.27065553535644    8.02554143687523    7.48886845468711
H         4.50739406241360    7.66049572317619    6.80307350610383
H         5.27791141048975    9.10976413224687    7.44029045533850
H         4.99065696053539    7.73277115626168    8.49921880817586
C         6.51513256525637    5.90891350457594    7.28265328437494
H         6.33001595473848    5.66316984058041    8.32686695043149
H         7.41660106870402    5.39417139944529    6.96497405570993
H         5.67975131988473    5.53685215915614    6.69120541535554

