74
CSD_code = TEPGAZ | q = 0 | S = 0 | Stoichiometry = C25H24F18MoN2O4 | MND = 5
Mo       -0.78357619248373    7.86570551200508    2.35467905933301
O        -2.29846455684277    7.10833356625344    3.28993987208564
O        -1.91153065989343    9.41022092810315    2.00811238263160
O        -0.12410116840590    6.14894949513856    1.88858668625681
O         3.64240446985327    9.63549672886493    8.00615967464399
N         1.31606566172422    9.26212409323882    0.17893105494646
N        -0.41776641815328    8.27001545070566   -0.59167416913358
C         0.23586762863299    8.55772712951807    0.55404209522295
C         1.34215449249531    9.41298558984585   -1.17611157669165
H         2.11928715404213    9.94803350346449   -1.68169819168168
C         0.24579369551368    8.78213218581027   -1.66679205061418
H        -0.10099953036999    8.66252164223611   -2.67263946944315
C         2.30786844120009    9.79703673318413    1.06748233523671
H         2.25390768502492   10.88558239120678    1.07359979216338
H         3.30097615098807    9.48104589373645    0.75051899611841
H         2.09946108877619    9.41744049912612    2.06691687629446
C        -1.62675222436733    7.49354564285374   -0.67255460504148
H        -1.41942582722681    6.51672979847685   -1.11789714803660
H        -2.36760950739101    8.01701776592133   -1.27966502690971
H        -2.03327626904187    7.34399497555212    0.33603089881536
C         0.44855690130188    8.44949972583348    3.58414203027407
C         1.26526079592977    8.75117576086733    4.67630707897864
C         1.96679559548743    9.96546551320797    4.81758170101432
H         1.88528935772461   10.71011046724303    4.04214421182118
C         2.74032379678452   10.21699842794578    5.92413823018142
H         3.27431492617859   11.14880341412541    6.02700860286868
C         2.85174694410430    9.27799909160908    6.95287590140694
C         2.16900018694838    8.07049242036597    6.83562620700304
H         2.23159950255898    7.31921044499838    7.60767111032755
C         1.40219362850231    7.81427755450118    5.71831831829890
H         0.88496909143579    6.86957283415529    5.62911971249590
C         3.77850925844242    8.73519383270073    9.07704320901839
H         2.81455307078647    8.52548492088315    9.55227291059856
H         4.43311793263494    9.22694911731164    9.79509951662295
H         4.23729396750534    7.79379790311523    8.75665398763039
C        -2.85377420843592    6.85646743311268    4.49870126436414
C        -2.39191500180643    7.80490605639737    5.61351591363185
H        -2.94283199979301    7.61530418377822    6.53215216393166
H        -1.32584616431462    7.66408506274376    5.77802374960208
H        -2.54637685473253    8.83214704398657    5.28652320665635
C        -4.39299612610267    6.95955411407681    4.34385426771279
C        -2.48269127986880    5.40174921665169    4.87905200962784
C        -2.27126384499693   10.71520877221102    2.05506952158322
C        -3.71893355712651   10.92577906077608    2.53064488572484
H        -3.97277062956605   11.98296601513049    2.54008738657987
H        -4.39207754287596   10.39040929644992    1.86442578215382
H        -3.82422835966341   10.51095382293177    3.53051596831094
C        -2.13082700944148   11.29010861057745    0.61959077015569
C        -1.31237614082880   11.48576025660117    2.99776679855546
C         0.85040957882616    5.20069857515997    1.85266018353717
C         1.66798902829359    5.06352888068173    3.14175529267536
H         2.50532869324352    4.38578515272555    2.99056406570065
H         2.02277148506822    6.05466499904405    3.42208289463097
H         1.02513599592957    4.68516305935371    3.93151630745517
C         0.15450502462342    3.85584080864506    1.51456661753180
C         1.81019276881113    5.56587525488526    0.69163941710848
F        -5.06843936872717    6.52781407667571    5.41665505416161
F        -4.75752893822139    8.23788594113398    4.15642205763269
F        -4.85004793319241    6.28231268441120    3.29029786085028
F        -2.83503254808426    5.05871205623873    6.12532615639206
F        -1.14892585326833    5.25846930800138    4.81073208588525
F        -3.01424109594304    4.49643058732948    4.06049331894974
F        -1.60548857700525   12.79016933424804    3.10107383238330
F        -1.36998257806038   10.97704085011817    4.23006964992917
F        -0.03767176413730   11.41442167694684    2.59607682315522
F        -2.54778744699235   12.55092762878834    0.48732164874563
F        -2.84533652474594   10.55078637418068   -0.24071057088629
F        -0.86710904358077   11.25067636943166    0.16723599353099
F         1.00392155416655    2.83057187050417    1.37601994312311
F        -0.70494057157164    3.52103483102256    2.47320346987855
F        -0.54281915635646    3.94095216671515    0.37338673585941
F         2.71582046007531    4.62920079738573    0.40584824959951
F         2.49459797856792    6.68367478701507    0.98135455706238
F         1.14877848140029    5.83039202982116   -0.44608554828987

