73
CSD_code = TEPGOM | q = 0 | S = 0 | Stoichiometry = C32H36N2NiS2 | MND = 4
Ni        8.70924969846727    2.02271665355959    8.19708187535971
S         6.99522163518950    1.24834167186962    7.19915783623341
S         7.97030157382005    3.99297544263790    8.52408537904650
N         9.50551743253295    0.36673052708527    8.02927845623969
N        10.32221126085285    2.54636873193126    8.92508003126715
C         7.60993179217750   -0.32594615591597    6.86463006868363
C         6.88056500037294   -1.27436390848503    6.14851831182663
C         7.39834727939075   -2.53404886444112    5.96815720266657
C         8.64801780977027   -2.86682298819425    6.50881045064192
C         9.38630868455301   -1.95285523940242    7.21228460412350
C         8.89498733064401   -0.63941511025802    7.39627930537444
C        10.71029377610006    0.18097508413691    8.80628546565408
C         9.21193278988719    0.34441062540947   10.93096082252820
C        10.33720850658178   -0.31216714647701   10.18586489179589
C        10.93060131804627   -1.33952914174100   10.78491058162347
C        10.44757943781680   -1.80950408053368   12.12833632715091
C         9.28623245504636   -0.93400691578204   12.59417818313969
C         8.24499712135545   -0.74933904290421   11.46055986596399
C         9.69303025041469    0.53306886793882   12.38073814221734
C         7.91391736767412   -1.92539465204826   10.55265358726720
C         6.93094724616986   -0.14925745037208   11.95073955124284
C         9.40042797334274    4.66994271098480    9.20538547488678
C         9.47787235002363    6.00305540577748    9.60690034399312
C        10.66851892002289    6.50149896444943   10.07743911380122
C        11.80148630683783    5.67834729572353   10.14504938300408
C        11.75020797717603    4.36305225261763    9.76680544161689
C        10.53386260613408    3.81104237726651    9.30219765749283
C        11.39046967796134    1.57758705988292    8.86353353653926
C        13.60333768550358    1.19437005965509    7.55194473740706
C        12.21355545690934    1.75731153677036    7.60816317692167
C        11.76572171041264    2.36693942187558    6.51500692956497
C        12.63751837033171    2.46686577269935    5.29820448377555
C        13.98652683892921    1.80820062910294    5.57786718988067
C        13.78696049454732    0.41238598842901    6.21873365118709
C        14.48570504509695    2.30288049735826    6.94460388199628
C        15.06414747044932   -0.42327112291808    6.20642137203388
C        12.64743312850282   -0.45874955244181    5.70477571359618
H        12.63662477833974    3.75003074227115    9.81401537142963
H         5.91344308769614   -1.00130600889387    5.75494042811515
H        10.34167676962271   -2.23442368522843    7.62593899046678
H        12.73348561073074    6.09480922559336   10.49861762557407
H        10.74079782436712    7.53339770570672   10.38513099818071
H        11.39438929311162   -0.53706296637580    8.33803049992172
H        12.03792944774137    1.64204705992187    9.74997546024017
H         6.32264556713890   -0.91779222323584   12.42378201650267
H         6.37625986433432    0.25409309640779   11.10494858303834
H         8.75708646322521    1.20037607911029   10.40259618391060
H        11.75443417257012   -1.87639331469277   10.33566227594711
H        10.14164131699002   -2.85760917479227   12.06290266689186
H        11.26605363424977   -1.75907272895991   12.85376997558896
H         8.91755734544561   -1.23399578678247   13.57577992798817
H         9.09763632428167    1.24156116068539   12.94852448187523
H        10.74892474980296    0.76612525603944   12.50841165046033
H        12.78709083494898   -0.65055516932634    4.64240962932418
H        11.67446046849327    0.00293483850571    5.84268902610239
H        12.14219370673720    1.99226224235032    4.44672284320812
H        12.78253797456130    3.52050362902115    5.03873028436135
H        10.77074658585899    2.79957030184280    6.45596348400687
H        14.96243280750938   -1.27227532754626    6.88058500403660
H        14.66094006553308    1.87915025956708    4.72371398894426
H        15.54974396923758    2.15093349557284    7.10145113921694
H        14.22186801318702    3.32396685355453    7.21471220049458
H        13.91774814336318    0.71476687628864    8.47874679073527
H         6.84157393093928   -3.27596940257339    5.41671617220246
H         9.03260248783939   -3.86635336845085    6.36764098519867
H         8.79515492837827   -2.36636478844851   10.09811340654778
H         7.39524343739202   -2.69581556523839   11.11994470929309
H         7.25751663933407   -1.59181493066484    9.75034561775326
H         7.08285707255158    0.65100722505081   12.66831420095224
H         8.59886885749393    6.62422818915308    9.52831390627739
H        15.93484452149536    0.14861708531720    6.51173408192664
H        12.64759654042690   -1.41783211604177    6.22045520182077
H        15.24434098603309   -0.80544096995099    5.20324716373719

