74
CSD_code = TEPGED | q = 0 | S = 0 | Stoichiometry = C25H22Cl2F18MoN2O4 | MND = 5
Mo        8.65891311327502    4.98805053473303   11.72439108363582
Cl       12.80793418102646    9.12522399073434   10.40492970924359
Cl        9.81320087339847    9.57515895253836    8.53968438706255
O        12.73306217570559    1.71478788669106   16.95430642558707
O         9.39136463233398    4.28002788117136   10.08899538912046
O         7.16092658153315    3.83755167042223   11.51158991395187
O         7.62664543585455    6.28823676331213   12.69095971720419
N        11.14543640356138    7.18270964727499   11.27330696622146
N         9.33686351333491    7.45187246337531   10.14003408173207
C         9.81076200220850    4.34104937485956   12.99757410006735
C        10.55040642264212    3.67765014158962   13.97925843764953
C        11.14067224505147    4.35334527764858   15.06686674233131
H        11.02056562666425    5.42366269149334   15.13749562263737
C        11.85260583645521    3.67345675754247   16.02394643172889
H        12.30193133117525    4.19214117387571   16.85631487254823
C        12.00937398364393    2.28605096019730   15.95084168024232
C        11.43587448028746    1.59874819904422   14.88386489037990
H        11.53740819861428    0.52835653342126   14.79484044105191
C        10.72881629099402    2.28404402594194   13.91844652916638
H        10.29128199671499    1.74630562143724   13.08886442159696
C        12.91102856433917    0.31976461724550   16.94466700076443
H        11.95372970624508   -0.20858252325573   16.99864612473207
H        13.49799405242858    0.09112814627634   17.83288456160505
H        13.45857554013853   -0.01025635890820   16.05563900308493
C         9.90537265463886    6.68733119408849   11.09664043886512
C        11.35167151803860    8.25696977300893   10.44639034030116
C        10.20116688860866    8.42951076748312    9.72653895004365
C        12.12564680504350    6.69144106815088   12.20368814079327
H        11.70728614522581    5.80900714187335   12.68736425850395
H        12.34127772278523    7.45276263116291   12.95311411623411
H        13.04815678879300    6.44407979213556   11.67883952384185
C         8.00317132836508    7.28114365601938    9.62609864751126
H         7.61506879659652    6.30904961836173    9.95237199568582
H         8.02225620750539    7.31565892244521    8.53583861294218
H         7.34996021550454    8.07320662045365   10.00011997842915
C        10.37852457888090    3.59270007864175    9.45542381621143
C        11.69432778008423    3.47121110200141   10.23678685636440
H        12.34884389572206    2.74159183905955    9.76529493218827
H        12.18704796759722    4.43954789634397   10.26544960721294
H        11.45384046945918    3.16696608116262   11.25449572968442
C        10.65070945279239    4.33876475193006    8.12433065982555
C         9.83063691097568    2.17394121527946    9.16597019834701
C         6.34588521419690    2.85357870213024   11.96464476004151
C         6.99273478535054    1.46299258467528   11.98746322692368
H         6.31608046353228    0.73559857557758   12.43034221208548
H         7.23520122771238    1.16513222813008   10.97007529329729
H         7.91253187878061    1.52692671443486   12.56786131605595
C         5.08798538179756    2.83233327714406   11.05749291127669
C         5.92802100302474    3.24100618083105   13.40144514321684
C         7.45527361844478    7.10625323335806   13.76515327002350
C         7.37075567400744    6.37855350432296   15.11247380170703
H         7.45270321220687    7.08381662536709   15.93632443354853
H         6.42171006118272    5.85413719808784   15.18045357518545
H         8.18153415889622    5.65004268882527   15.14752903408569
C         6.16637067813414    7.93878775713455   13.50856261768014
C         8.64500538152659    8.10050977598883   13.81544932424772
F         9.57990635395622    4.41502342696101    7.33650199568252
F        11.64882758264669    3.82888795344148    7.39971731387934
F        10.99804799917315    5.61201629628420    8.40960829225098
F         8.61836481450285    2.20107651363428    8.61730652096673
F         9.72133319465915    1.48905471692713   10.31307649992770
F        10.61684435254721    1.44715780917491    8.36109404473016
F         4.12846613834120    2.00800710425642   11.49739828894565
F         4.54152522269192    4.04462471097525   10.93366055503093
F         5.40445376464078    2.42700722465548    9.82406545006732
F         7.01064427416622    3.30761487819196   14.19323594433948
F         5.08483609385518    2.38182689355060   13.98440051018154
F         5.35585190667778    4.44681588422405   13.44768078145995
F         6.19952291019750    8.50290701343034   12.29066370820373
F         5.98866085631069    8.93187089263805   14.38917788514962
F         5.07290103019915    7.18614054309305   13.55427731389772
F         8.55693696507152    9.01908033074448   14.77887982085247
F         8.80008561629248    8.76817027586970   12.65863087175065
F         9.80175887107167    7.45407990767212   14.01844794699782

