76
CSD_code = TEPGIH | q = 0 | S = 0 | Stoichiometry = C27H22F18MoN4O4 | MND = 5
Mo       -4.57821214981952    8.63282275066983    2.97244514789859
O        -2.92125002936805    8.99254828103017    2.06326356108878
N        -7.39787176251198    7.52800343586521    4.35666447813751
C        -6.19708065920468    7.38550081093643    3.77016424750105
F        -1.87170334298414    9.15949783093286   -0.52471599338686
O        -5.27764014505939    8.00032623065655    1.29398004476332
N        -6.01618498109531    6.05632467108808    3.61702521850417
F        -0.15921732117983   10.22360682010614    0.21456950340729
C        -7.97588702502542    6.30605802993139    4.57835919997906
O        -3.68582806686116    8.29151363594599    4.60711932177348
N       -10.25925499576503    5.98297274003629    5.66209067884734
F        -0.57867239641107    8.23552710861275    0.92005518134469
C        -7.09022051772634    5.35775856434819    4.10008745865311
O        -7.43119004451132   15.41824960965899    3.68242408722956
F        -2.00315366005214   10.73030852334725    3.92509409361979
C        -8.03452918664975    8.76644198741657    4.70879180707644
H        -7.38563645475989    9.58079716021453    4.39075923932464
H        -8.18426152864602    8.81613957406562    5.78710117149485
H        -9.00088890175676    8.84193495729498    4.20949622178740
N        -7.24786254418984    2.81531410357609    4.08696188339049
F        -0.59173035618918    9.19405366865407    3.43506667864007
C        -4.87618791778518    5.43488388027508    2.99724184408798
H        -5.14766660687271    5.05315530441899    2.00886411092917
H        -4.52224506746882    4.60416400150593    3.61117103218188
H        -4.07250310726282    6.17272898064294    2.88518883330117
C        -9.23118131448568    6.12497895044506    5.17666603480024
F        -0.25892460805038   11.20989478260253    2.76607906147893
F        -7.61348402432741    6.68100834673948    1.29393811244531
C        -7.18865916600603    3.95977287537586    4.09039561366893
F        -8.42726934001305    7.83129531096252   -0.33410417784141
C        -5.46575590682156   10.22715159232807    3.18135617411236
F        -7.98641258355095    8.76742969730654    1.54545360297463
C        -5.95942595459044   11.52480483414296    3.33008194241248
F        -5.73384426789727    5.90258852589143   -0.38246700125034
C        -7.24955072675334   11.89750919997878    2.89760539133470
H        -7.88751508797245   11.14741630711463    2.45562182185835
F        -4.38983602516909    7.35911543217194   -1.20250512821799
C        -7.69971217491997   13.18704275173102    3.03533737985961
H        -8.68828666758609   13.46825911856598    2.70796229117240
F        -6.38890903995928    7.20072155120794   -1.97100560627882
C        -6.88612465674404   14.17403240481184    3.60042386857309
F        -4.18296053192626    9.33743366764569    7.97065463143937
C        -5.60737575460994   13.82709523505275    4.03156513421620
H        -4.95414860143569   14.56154298572832    4.47584990367837
F        -3.92197484676640   10.58570186162688    6.24414328280213
C        -5.15973280129920   12.52918912398335    3.90596396027268
H        -4.17586161168716   12.26056838559813    4.25960076095209
F        -5.58339883327551    9.22899362798686    6.34167322307851
C        -6.66682352893230   16.45287558802861    4.25208976671728
H        -6.40700713727824   16.23478661601314    5.29283374998086
H        -7.29860386669024   17.33902751666336    4.21743343620983
H        -5.75202318483366   16.63899932464649    3.68016054997705
F        -3.59296742328721    6.67559360758686    7.75851000869052
C        -2.05145873674800    9.96541924530680    1.69492349407319
F        -5.18335753188370    6.67806919872371    6.31112410801688
C        -1.14618646485283    9.39153987488065    0.57466193305580
F        -3.25794004795769    5.92144192864346    5.77351000524244
C        -1.20008819974545   10.27856039674263    2.94555909733202
C        -2.71137229228743   11.26016582096786    1.20138028096177
H        -3.23904470115204   11.05859176106578    0.27198552157424
H        -1.96086305869424   12.03004802839773    1.03559693560771
H        -3.43153772303989   11.58580306321004    1.95102676186483
C        -6.09200947470031    8.19048816839400    0.22117995399699
C        -7.54117427166340    7.86469206579485    0.65948440242142
C        -5.65872517117382    7.15657156516870   -0.85271594660900
C        -6.03313870975596    9.60546241011808   -0.36348476736140
H        -6.17147312395652   10.31246067973411    0.45543406799773
H        -6.79925780961470    9.74337636487306   -1.12314498274289
H        -5.04923885030810    9.75605593206027   -0.80455147849138
C        -3.42363265524253    8.27915591730170    5.93922771694074
C        -4.28041710634376    9.36717061971767    6.63588759951940
C        -3.86235784068082    6.88914726055132    6.47370280922373
C        -1.94318563179644    8.49516563972036    6.28832586732207
H        -1.33682878807622    7.79810771081072    5.71262220694704
H        -1.77735930042530    8.34012196629207    7.35207243195454
H        -1.66070407388054    9.51022249833007    6.02180514046216

