68
CSD_code = TEPHOO | q = 1 | S = 0 | Stoichiometry = C28H34N2O2PRu(1+) | MND = 9
Ru        1.05022124406241    8.47804671003140    8.21296780749988
P         1.26051924415917    8.93300509591532    5.16413102409085
O        -1.68773321569530    9.60981253967606    7.89150691695737
O         0.21811421838588    5.98958067673775    7.19034349536871
N         1.84791319705905    9.53856107478070    6.54384843969388
N         1.03232827170008    7.32443661562418    5.54718536610019
C         3.08602297701055    7.68120479214712    8.88393838223854
C         2.20120559052647    6.69379537442231    9.37943773042022
C         1.02121997201830    7.09942144107228   10.05602623509098
C         0.86864263634934    8.47304111870255   10.43737872032951
C         1.96458914376082    9.38109677890852   10.26938266351314
C         3.01618131626769    9.01542162277808    9.40651421841669
C         4.26991734039315    7.27060317944197    8.04458075466479
H         5.10269377361280    6.97013921649202    8.68324149420739
H         4.61275017612775    8.08784119715663    7.41588752651257
H         4.01424300528711    6.43937239582763    7.39106606219620
C         2.46972266047482    5.22939281803325    9.20867555682083
H         2.30567936796840    4.72044436762940   10.15707185214509
H         3.48848298922285    5.03389724115833    8.89163649695420
H         1.78391739879674    4.79438668683468    8.48114675516367
C         0.05163658091348    6.04112473457633   10.49933927027505
H         0.48767254218658    5.45964900914017   11.31306387805042
H        -0.16517958495683    5.36527152110882    9.67410291415315
H        -0.88564419948352    6.45699193788015   10.85096286409054
C        -0.32823726312941    8.90524785422833   11.24614579381735
H        -0.19182441576513    8.63626877089902   12.29472829930777
H        -1.23625149937897    8.42530036279242   10.88776224999121
H        -0.48224680009007    9.97903719900030   11.17724321215712
C         2.01148846991506   10.65900626207473   11.06740445190801
H         3.03723729669368   10.90591916248394   11.32965257878896
H         1.45960843685706   10.54427631588290   11.99598853423559
H         1.58386406689960   11.49979358281378   10.52090963000220
C         4.16240480326333    9.95501901764449    9.14454919222895
H         5.04597400420288    9.61049276607040    9.68371991196776
H         3.93975578830515   10.96918305859331    9.46029285266040
H         4.41199032473542    9.98901778880867    8.08616757848712
C        -0.63192601575219    9.16351550450444    7.97135784203702
C         0.64632512192498    7.06418854194795    6.85594283924948
C         1.86621254498683   11.00103791226755    6.63005824450890
H         2.49036108380802   11.42349765930976    5.83582179658334
H         2.29218704669761   11.29486019879540    7.58918928177369
H         0.86234012484165   11.43491925797935    6.55030398044854
C         0.86305410639912    6.32387022630545    4.49455638396124
H         0.34246067555289    5.46878584545334    4.92683384077257
H         1.83383651081256    6.00139295644605    4.11540936339111
H         0.27158905994371    6.72986893843472    3.67290268349184
C         2.45050627543086    9.00903961343977    3.80781276742777
C         2.05237724593940    9.04554618468428    2.47642115087391
H         1.00119408683963    9.07096281419777    2.22639169515203
C         3.01402049593050    9.05404871219972    1.48155772131814
H         2.71388493325155    9.08214829449854    0.44550007404333
C         4.36004442817797    9.02596153066917    1.81348687661422
H         5.10486104911802    9.03504697724811    1.03281422200837
C         4.75505903579968    8.98696689769723    3.14249157891098
H         5.80439052137714    8.96590467020905    3.39437188077308
C         3.80011608984095    8.97744208731562    4.14175978000196
H         4.07700917672893    8.94936138892392    5.18649319815415
C        -0.32423956372658    9.62263526002555    4.61221992551482
C        -0.32855902439043   10.86313407127152    3.97952611477030
H         0.61043390104699   11.35110704645440    3.75270604676966
C        -1.53238990082011   11.45190460681940    3.63840382933579
H        -1.54144276993545   12.41330088242150    3.14836795533783
C        -2.72479358672806   10.80720091688344    3.93051186830636
H        -3.66280009870257   11.26892934847628    3.66421912347844
C        -2.71892568443766    9.57290447828850    4.56195422769377
H        -3.64917970106972    9.07503298476807    4.78683419636939
C        -1.52014298094140    8.97703686912268    4.90996017835092
H        -1.50904404640037    8.01714703570421    5.40971862214558

