86
CSD_code = TEPHII | q = 1 | S = 0 | Stoichiometry = C39H42N2OPRu(1+) | MND = 9
Ru        6.92446079189293    8.60963017430408   14.06629715566941
P         5.01495307147758   10.67959422365436   14.22401137628675
O         5.88878103541171    7.77787539398465   11.40127937194113
N         5.06389602687461    9.19057193885893   14.89254791780691
N         6.61174470801964   10.69302895876023   13.84782166109468
C         7.86914747882814    8.66055356180025   16.18135464586220
C         8.84209731408546    9.24190458085872   15.34559596987640
C         9.21138991002975    8.58870439410727   14.12828932431905
C         8.73230539583312    7.27192477541983   13.86075940855088
C         7.93515725210073    6.58725122996286   14.84083442709290
C         7.42407089023715    7.31610253937584   15.93545809321587
C         7.38043759153835    9.32526365696444   17.44078167642037
H         7.65579254612083    8.73002581813656   18.31160221103923
H         6.29298129423959    9.41396333230224   17.42128723737425
H         7.78316165728665   10.32334198366556   17.57137039976939
C         9.53028960095544   10.53421920170164   15.68335207234351
H        10.59392979936900   10.45249029183466   15.46958591169055
H         9.42749734672110   10.79394091654504   16.73187437783566
H         9.13024234526552   11.35345932781910   15.08332820775441
C        10.26757472240944    9.21863971734208   13.26220524465577
H        11.24745756968471    9.06033933831181   13.71663991334194
H        10.10558718049172   10.28879339213025   13.15747712970880
H        10.29489101627742    8.78876192498559   12.26712383652582
C         9.21250275057100    6.50998365616764   12.65174483973373
H        10.19803653442731    6.08440351017585   12.84673898695493
H         9.28992451917131    7.15418648947501   11.77929057325578
H         8.52928078475104    5.70466382942699   12.39676395186660
C         7.74589486907131    5.09613242130890   14.73323837516903
H         8.65008220227100    4.63633735264206   14.34090320838478
H         6.91898945126355    4.83445060523159   14.07289343239938
H         7.55322253694541    4.65907350400151   15.70842663868880
C         6.53479231872988    6.65332632331969   16.94931906327919
H         7.12924150167220    6.33556200399557   17.80803311600001
H         6.02634324387297    5.78689897648692   16.53892425982684
H         5.76830159989650    7.33663204307295   17.30578056344226
C         6.24659048096083    8.14610122752588   12.42691015739651
C         3.94917679594144    8.38841740331934   15.12077047888317
C         4.00201159302206    7.02624946793608   14.83324217807926
H         4.89835891676145    6.62753827829457   14.36475497949985
C         2.92015365546782    6.21100870252756   15.10365582476361
H         2.97654137775987    5.15829151955627   14.86801510284435
C         1.75633281304272    6.72683405352966   15.66104204388810
C         1.70544429543188    8.08996192018766   15.93268702100766
H         0.80748188242009    8.51477264580292   16.35613522870683
C         2.78009919530014    8.91428879720281   15.66694170534169
H         2.73355719163909    9.97412895476787   15.88009461127945
C         0.59148505170536    5.84055975123140   15.97273525749279
H        -0.34731599635342    6.36717621546082   15.81923869157921
H         0.63055766664665    5.52514143123411   17.01590260950586
H         0.60279220821358    4.94932492238535   15.35051391305083
C         7.14629594090974   11.53468482993437   12.86973547479075
C         7.82883812025959   11.01302227589616   11.77460787186483
H         7.88271590643763    9.93531428439628   11.66019103933595
C         8.40870130041006   11.85272999507760   10.84354502458840
H         8.93196081082963   11.42779199932700    9.99977279132409
C         8.32266398246641   13.23415085151416   10.97064569230700
C         7.63319138747643   13.74977305655385   12.06191426096777
H         7.54909815743729   14.81982657077633   12.18245094113447
C         7.05363158726492   12.91985910676559   13.00124175458043
H         6.52979630503460   13.33548540011203   13.85178722482240
C         8.93190001405968   14.13905638212713    9.94652527511369
H         9.18450293497973   15.10346171107577   10.37968688034569
H         8.22506609695155   14.30947382829485    9.13412057012799
H         9.82863259821126   13.69575626118806    9.52063289425955
C         4.56866216217196   12.01328584077949   15.36747699893062
C         3.31524745825151   12.61328640407100   15.36509556701495
H         2.57626853974580   12.31403852923371   14.63454309694841
C         3.03065201897515   13.59285021269360   16.30000698895534
H         2.06043191121137   14.06558993711229   16.30336445956614
C         3.98833549434294   13.96869490605870   17.22968954750954
H         3.76041676203814   14.73511051585955   17.95437053278308
C         5.23835040781870   13.36777669802937   17.23156777827374
H         5.98155149089804   13.66750154260193   17.95511049417593
C         5.52823869930652   12.38777017962060   16.30121184551728
H         6.49880536785310   11.91085964680819   16.26653935393659
C         3.98112580165250   10.82303215282679   12.73953480676367
C         3.87007095649994   12.06207363952988   12.11438498536006
H         4.32212156101449   12.93456223344129   12.56434648525647
C         3.18024695986892   12.16406402823857   10.92083461362620
H         3.09306245369277   13.12214713729415   10.43163251830581
C         2.60278318828078   11.03797270691534   10.35448576463530
H         2.06309925695508   11.12212580181141    9.42377349043707
C         2.71426509513314    9.80563630679201   10.97858708904917
H         2.26208598533288    8.93115618429017   10.53682967614503
C         3.40856241025943    9.69144382953728   12.16964087067387
H         3.49459489010655    8.73460833408610   12.66654095786571

