78
CSD_code = TEPJAC | q = 1 | S = 0 | Stoichiometry = C36H38N2PRu(1+) | MND = 8
Ru        3.49432612771828   13.05778367575469   10.64814734498038
P         2.71473878782239   15.02850274577480   12.35942266660738
N         2.78891646363270   14.99701114444595   10.71791236707102
N         3.75088478012116   13.76541549260227   12.52984636529964
C         3.79093544851107   12.46878765769908    8.45885959608454
H         3.79672535824382   13.02799076859298    7.52944749524093
C         2.59516315307366   11.88782167746717    8.92125618592910
H         1.68023111575183   12.00804761193705    8.34900207564623
C         2.59057143276992   11.04724229909316   10.06630864039765
C         3.81896363259767   10.81964690746548   10.73541689461116
H         3.85230883279641   10.12226206027305   11.56649013860020
C         5.00783843798962   11.42498487227835   10.28744304174633
H         5.94524850912865   11.17742114233368   10.77092654560071
C         5.00903044861439   12.27763438635761    9.15267434805512
C         1.34619746630499   10.31354020637098   10.46723851721657
H         1.27601164946468    9.39102902002760    9.88774929571425
H         0.45477742560076   10.90386435084796   10.26180310194364
H         1.36543264667486   10.04380203724383   11.52151265081075
C         6.26710746402454   12.98202840234721    8.70694972361152
H         6.04075821261363   13.53717741907381    7.79003486385122
C         6.68201111212946   13.99000404543707    9.78689824256814
H         5.82507037793247   14.60898794376660   10.07283799997776
H         7.46973766402515   14.63821828989060    9.41298312955071
H         7.05277606115553   13.47995294477820   10.67328365770585
C         7.39715596608471   11.99628932684246    8.40378611350436
H         7.08017221795293   11.26699004056888    7.66205430983696
H         7.71258501855036   11.46614307228748    9.29863776301883
H         8.25489295765709   12.53500949405705    8.01052397052790
C         2.05989887161179   15.84553905393196    9.89973319663577
C         1.97707355859595   15.61756560972817    8.52461496508310
H         2.47934041275387   14.75998972979746    8.10470040530652
C         1.27123456683138   16.48122261223504    7.71449894193764
H         1.21854331504101   16.28978371860093    6.65281586141490
C         0.62376319012432   17.59748934322299    8.23763070069145
C         0.71322395477331   17.82611213294426    9.60653179440045
H         0.22467625308153   18.68722508151977   10.03802366270592
C         1.41824787349590   16.96836961869785   10.42386388481127
H         1.49352134470507   17.15893364601562   11.48869809242814
C        -0.13057466764522   18.52595636867196    7.34125547357313
H        -0.70823685906932   19.24332230714276    7.91746131049425
H        -0.80503166808691   17.96948776574922    6.69317495166211
H         0.56133331207358   19.07518393359444    6.70302979529298
C         4.13771984348349   13.20307047371240   13.73443497537527
C         5.23320124782528   12.33761746212341   13.78203158894267
H         5.77414209746534   12.13336993813107   12.87023864231439
C         5.63279925600024   11.78088086020144   14.97813984572282
H         6.48383033804331   11.11606892521623   14.99657384490130
C         4.96498529459666   12.06630189254326   16.16597870796312
C         3.88062289083215   12.93566669332088   16.11702369188054
H         3.34557581432349   13.17299584831866   17.02463727816985
C         3.47090473747874   13.49455330121764   14.92448888724452
H         2.61069527790500   14.15311373667879   14.89001850400839
C         5.42097738165073   11.47291075508388   17.46014772424500
H         5.77600824050835   10.45505898719807   17.31693746008393
H         4.61822886800040   11.46922400792406   18.19268947802906
H         6.24612511580463   12.05890126539204   17.86594899923485
C         1.01295608210321   14.64375959045207   12.86873024197716
C         0.11827518594148   15.56966508475287   13.38855112447274
H         0.41721680337378   16.59399478543623   13.55610391139716
C        -1.17262686270433   15.16611789053538   13.68559670512830
H        -1.87356294348160   15.87989218996540   14.09038332620512
C        -1.56706805026857   13.85699725918859   13.46255723170834
H        -2.57489129152753   13.55233490788077   13.69796638444408
C        -0.67327293144233   12.93716998121612   12.93352622570926
H        -0.98430002496012   11.91822931903787   12.75969452356088
C         0.61611014485973   13.33145786826445   12.63443961202878
H         1.34137258680765   12.63037554137639   12.22004030122430
C         3.40056520322023   16.50828727287267   13.14743634650867
C         3.05520573935292   16.98104272113533   14.40716696974986
H         2.27863401020789   16.50132257638569   14.98446131469117
C         3.72247989256075   18.07906603059896   14.92184442918571
H         3.45695588289262   18.45493256560730   15.89809223608994
C         4.72814817193554   18.69279488995351   14.19212743511486
H         5.24083128453150   19.54944126081878   14.60163859463630
C         5.08170348832970   18.20897432584694   12.94126015937506
H         5.86931528794577   18.68518157391505   12.37787031254491
C         4.42139093541464   17.11387962266494   12.41869238367976
H         4.67646277375670   16.71657863754802   11.44315052030271

