49
CSD_code = TEPKUU | q = 0 | S = 0 | Stoichiometry = C26H16FeN6 | MND = 6
Fe        2.30631555760655    4.01893928148380    8.57597365686326
N         4.53305363938173    6.05398905648465    8.57236066946569
N         4.49761920830042    2.21303620449685    9.59443031424403
N         2.77319777344755    3.41002715691795    6.81262761463525
N         1.09792928920665    2.48907782083139    8.55721411891409
N         1.89913437895921    4.63302154774983   10.35378903096903
N         1.06695257822119    5.42147110445146    8.03310763821874
C         3.72060159414829    5.24050583762030    8.58591753151400
C         3.69619588498800    2.94238888842156    9.20993863884480
C         3.63609311154071    3.90573511592373    5.92889909242026
C         3.92018207174154    3.29082889341658    4.71376502720339
C         3.29806121981001    2.10804188074659    4.36865050566414
C         2.37877001384723    1.55307785891413    5.26988388523854
C         1.66442835784218    0.34076291441805    5.04802378027187
C         0.78540650248692   -0.14126881007903    5.96249268562625
C         0.53862664783730    0.54325965425036    7.18682263639327
C        -0.35473749336596    0.10602976068255    8.17480003107030
C        -0.49722200069922    0.87180141665305    9.31512136726188
C         0.23704835571630    2.04217062550693    9.46618655314694
C         1.23884337545480    1.74200664423151    7.43114430327574
C         2.15350393835352    2.24597043353174    6.47689870563391
C         2.33923284515889    4.20804829745400   11.53568983142316
C         2.00830818665701    4.82406120062239   12.73839623138155
C         1.18482683664136    5.93169555582292   12.75079589936515
C         0.69592717247372    6.41033013292492   11.52714885667335
C        -0.15914186525285    7.54112681912475   11.38801093293854
C        -0.59733280198095    7.95264343108965   10.17150325500318
C        -0.21984839111425    7.27296973354257    8.97815988952279
C        -0.63266540265893    7.64169761485887    7.69015945487278
C        -0.18878858910862    6.89089331999700    6.61942731260447
C         0.64849184271905    5.80180871971886    6.82997371810445
C         0.63027704751651    6.15424905982910    9.09068554225553
C         1.08450334112599    5.72298460527270   10.35911406517028
H         4.12852681842380    4.82405987917654    6.21286633045050
H         4.63716126391668    3.74937267505633    4.05131197630650
H         3.51012944892619    1.61194705600943    3.43389525886367
H         1.84396704687345   -0.19060833137431    4.12480733976183
H         0.25217163010739   -1.06299736940595    5.78066751047104
H        -0.91143668060130   -0.80868461961440    8.03934799443947
H        -1.17478734738546    0.57105695544053   10.09914626452372
H         0.12742510697794    2.64228092871455   10.35871412628704
H         2.99369834305791    3.34908967049896   11.51555121941622
H         2.41007864109695    4.42639699374566   13.65696603201304
H         0.92190564030419    6.42777402646854   13.67258003191950
H        -0.45037221643178    8.06866218812574   12.28455854898157
H        -1.24401885849176    8.81327577823260   10.08154130342164
H        -1.27939086238250    8.49416350356664    7.54874111115942
H        -0.48307326124398    7.14095142952080    5.61190824079955
H         0.99782105985536    5.21377745892489    5.99268393499488

