91
CSD_code = TEPQIR | q = 0 | S = 0 | Stoichiometry = C41H44AuClN2O2 | MND = 2
Au       13.58574672153240   12.03077483461151    7.09300736921089
Cl       13.64197482804014   14.15275648882751    6.36242757410559
O        11.13910441024111    6.87916350898081    6.93819987920622
O        16.69161010151752    8.85700818448777    8.85763680635173
N        12.51328556831871    9.30345551226110    7.53807451728573
N        13.90968839585278    8.16352171280571    8.74922210589901
C        13.54919123251853   10.15791256365846    7.76589579657216
C        14.44193499956154    9.41183790204962    8.52897919045316
C        11.79603442869516    6.96819833163439    7.95859350667709
C        12.71253740891901    8.11175850382536    8.13939679922597
C        14.52663482958517    7.11420827629769    9.48833375831510
C        11.35511037580181    9.66126928533366    6.79435025725126
C        15.84106389291090    9.73194444175891    8.84608601093263
C        11.72318477307118    5.96515654984324    9.03782843137039
C        14.73204146174941    7.26907113028311   10.86478557081483
C        15.25850254577880    6.18968875715568   11.56274153285376
H        15.42770058133038    6.27738910530794   12.62410310979380
C        16.14690765326009   11.15488035285899    9.07622506123043
C        16.79064932808246   13.82727220007198    9.46016152635763
H        17.03192067149099   14.87089312013194    9.59346662477112
C        17.69977038351307   12.97804176100448    8.84929654106539
H        18.65137390339886   13.35805318395531    8.50936126200690
C        14.90318803404172    5.94893635627356    8.80816089798798
C        11.81643214627548    6.33327608177628   10.37586493708737
H        11.91916003283185    7.37647249328671   10.63069589496299
C        15.58135209987802    5.01181493690195   10.92190059720055
H        15.98253784111740    4.18344514507184   11.48592192480470
C        17.38713031429848   11.64472182409771    8.67116960206943
H        18.08245481734521   10.96782738782947    8.19715396088180
C        10.21807103392975   10.07405197891527    7.48804683740465
C        11.40532606843918    9.60807139486332    5.40127577090753
C        15.24166275090252   12.01246522101501    9.70334800832550
H        14.30067185660137   11.63179787372020   10.07150414480171
C        10.26204554521368    9.96774422329426    4.70227680133784
H        10.26451699704418    9.93141085297574    3.62455236629883
C        12.64136623486536    9.15050920898214    4.66586875278783
H        13.44827588245266    8.97669023771964    5.38562259630344
C         9.11993363458280   10.36982731492432    5.36694430371158
H         8.23994612685738   10.64532876917205    4.80542575753373
C        15.42763754581940    4.90367014795250    9.55369700686506
H        15.72938619289224    3.99596676526646    9.05812066484951
C        15.57231240722731   13.33938281605184    9.90362123162955
H        14.87032394910335   13.99983027373657   10.38924607450554
C        14.85784266213502    5.85678418437466    7.29986097395776
H        14.08402848201794    6.52412572860213    6.90865133153019
C        14.48056366946217    8.56428470298726   11.60744446250968
H        14.02923791671281    9.29684672223209   10.93056908230361
C        12.35753655553269    7.82834382120665    3.94762963412715
H        11.96059987355467    7.09895714233274    4.65064871011385
H        13.27233230234822    7.43646375967491    3.50800659380759
H        11.62769159556267    7.96981023976957    3.15503492850407
C        15.82281475056975    9.12825941482981   12.09291020217881
H        16.21404135941748    8.52569571501368   12.90859302081939
H        15.69483102198655   10.14837820569979   12.44811974569882
H        16.55837943901798    9.13070711590776   11.29415545434290
C         9.09857598675849   10.42472560205144    6.74682459587745
H         8.20196620369507   10.74551147184616    7.25363227438982
C        11.72722831828694    5.37292730135656   11.36427717963435
H        11.79711223108831    5.65918076897416   12.40258817649574
C        10.19436793673705   10.16005383038081    8.99645223868232
H        11.17390828260225    9.86973826282408    9.39340829270771
C        13.54319618926805    8.40347946801628   12.80788631446976
H        12.54458289035128    8.10085366098855   12.50472251711549
H        13.46338843371856    9.35521547815075   13.32904095276602
H        13.92540237140446    7.66593879956976   13.50803854056250
C        13.12542070701282   10.22351311343891    3.68944623692422
H        12.39308877142938   10.40293936035239    2.90731667573063
H        14.05546181067054    9.90727216306117    3.22232613708797
H        13.30418992046627   11.15943421978715    4.21624393202842
C        11.48152633278075    4.63423388888850    8.70316390547000
H        11.35474407215245    4.37519172222286    7.66269944086854
C         9.93391820976608   11.60130841847900    9.43997222386853
H        10.67810061430318   12.26705293025320    9.00679683958452
H         9.98715253269087   11.67577259846871   10.52419256322678
H         8.95035554558757   11.93463203187630    9.12155713788586
C        11.41081356258929    3.67498963218094    9.69433567358048
H        11.24193632527003    2.64135388718660    9.43282313189571
C        16.21123431347412    6.32796509731598    6.75367588082970
H        16.46447888048314    7.31147886188254    7.14170686946600
H        16.18320104906632    6.37209142546540    5.66741598227986
H        16.99628790152935    5.63866442542864    7.05601900283885
C        14.54052596629513    4.45034901834127    6.79035008604917
H        14.28140486003472    4.49571812486634    5.73525178895940
H        13.70302008330822    4.02111770431595    7.33474018688132
H        15.39803035434730    3.79061959639440    6.89336779586874
C        11.54664718325657    4.04184187053587   11.02395643674697
H        11.49215634150295    3.29176211380761   11.79837029816122
C         9.15210718412359    9.19996332102959    9.57530945687370
H         8.15027614323799    9.49120763259769    9.27257130643145
H         9.19599256141356    9.20586555308132   10.66263685701544
H         9.33130029417046    8.18448288097614    9.22516756683750

