67
CSD_code = TEPSAK | q = 1 | S = 0 | Stoichiometry = C34H22F4IrN6(1+) | MND = 6
Ir       16.17681173675617    0.46245364081361    4.23382639450680
N        18.24234367184508    0.60193801539103    3.68289167593988
N        16.86908992329336    2.28428899422865    5.24785720237838
C        18.96556037008152   -0.34909294576712    3.10425796817398
H        18.45716932258041   -1.28373681882695    2.91247074110307
C        20.29419312016053   -0.17638372345803    2.75754797520370
H        20.84106859497955   -0.97775977834764    2.28896373877463
C        20.89656882633451    1.04226955081801    3.03340996526306
H        21.93228094606521    1.21500644959124    2.78647511299686
C        20.14690536210600    2.03444929500648    3.64041241625378
H        20.60078108310575    2.97997584858262    3.88665452071926
C        18.81088929884816    1.78704975345654    3.95028134832812
C        17.95840463442245    2.77518580101871    4.62909020612214
C        18.25902350740071    4.13284014537818    4.64370559935929
H        19.11727761813291    4.51308067642400    4.11555423608807
C        17.41425810758830    5.00228532090537    5.31770203101711
H        17.60877564574348    6.06340555398261    5.31600637616189
C        16.34027490642274    4.48063624209054    6.01247534795499
H        15.68775176994637    5.11120250566368    6.59441081573242
C        16.10937143414729    3.10421346240429    5.97566947781088
C        15.06405269470399    2.52258474480308    6.83271719898385
C        13.74445064387866    2.95785551241282    6.77041607647532
H        13.45426452842862    3.68446379995883    6.02657778849879
C        12.80543578545068    2.44575528426602    7.64626058033638
H        11.78135629616100    2.78015834315439    7.58839960400516
C        13.17985498814865    1.51897312807573    8.60609508242578
H        12.44855301033118    1.13247526443950    9.29860433060910
C        14.49647256107285    1.09671793135027    8.68431597296449
H        14.79367574518393    0.38760484004985    9.44202645183817
C        15.43612977836092    1.58915939640890    7.79717810862499
H        16.46978040509540    1.28224251707531    7.87068485513320
N        16.41562249814320   -0.71946895935041    5.83649534636525
N        15.28098773283538   -1.11956962546717    6.43443726079406
C        17.42095165386995   -1.30001231569949    6.48116680660382
H        18.44113538188958   -1.14293870975989    6.18966695788992
C        16.92343668114433   -2.08716266207735    7.51821710506630
H        17.48386721542748   -2.67774563609492    8.21193833273271
C        15.55316032885358   -1.94715868663624    7.45822854995424
H        14.79226652975745   -2.38656080235878    8.06895552042600
C        14.08590044748217   -0.59416972026944    5.92949111780333
C        14.24362367310527    0.27597240542437    4.83357812451402
C        13.09745658730063    0.84722745094207    4.29929425751453
H        13.14134061889863    1.52566153654935    3.46159939714486
C        11.85479960313165    0.56393907871315    4.84254777389309
C        11.69210251416779   -0.28987730792449    5.91763112844724
H        10.71884424340138   -0.50282472362494    6.32643168246095
C        12.82806535514247   -0.86025980988127    6.45667511319954
F        10.77127618276181    1.14551410982361    4.30998419407256
F        12.69588088640104   -1.67808342845026    7.51660167786772
N        15.72627721605360    1.50901533971606    2.56110053141949
N        15.36601869163755    0.76110883428377    1.50594244552585
C        15.62993284881040    2.77922950402285    2.18548969714373
H        15.85404996667136    3.58590744587497    2.85557881699113
C        15.20449372609275    2.84939472878883    0.86043276219202
H        15.03354311111731    3.73043446552768    0.27877320653865
C        15.04462239534348    1.54072840602632    0.45855385014918
H        14.72690655618954    1.14877808668840   -0.48502527206222
C        15.37457720085279   -0.62783705069947    1.68391962468321
C        15.70440753458675   -1.06249455793051    2.98136118732688
C        15.73393031121118   -2.42958857905909    3.21616090012184
H        15.97961958559514   -2.83400508040634    4.18574894051714
C        15.44289345157020   -3.32161145511906    2.19512712240072
C        15.11841911383211   -2.90414149216542    0.91727609287631
H        14.89439669406278   -3.60827813556876    0.13370424433289
C        15.08920387206388   -1.54444172711630    0.67674433493084
F        15.48539464060753   -4.63354922222157    2.45661955006448
F        14.78726863318960   -1.11803045586173   -0.56178758168692

