57
CSD_code = TEPSOW | q = 0 | S = 0 | Stoichiometry = C13H30LaN3O2S8 | MND = 8
La        0.02679014539782    2.47186433812458   -0.00110528597455
S        -1.69542545771569    4.82850570614580   -1.62760713475956
S         1.75584609172729    4.84734126325083    1.58532676848963
S        -1.99560263623489    2.20982642183285    2.08224916172511
S        -1.25871775663680    4.96287077117606    1.36096140775715
S         1.32042433200583    4.93985559530781   -1.40342653715711
S         2.05118160906144    2.17222200671284   -2.07572637071510
S         1.04788176242406   -0.03757921948358    1.06294791734373
S        -1.04599825664220   -0.03689513003188   -1.02134637514736
N        -3.02967883291082    4.34787589412212    3.24227984599010
N         3.08609071942969    4.28783283401505   -3.27631576201069
N        -0.01839206516502   -2.22424431064490    0.07808654366364
O        -1.51058723910116    3.35684579348637   -1.46183026070142
O         1.56659603876786    3.37331270555350    1.44622306696850
C        -1.65456363703037    5.03595039213691   -3.44432177187459
C        -3.50520389002663    5.02724249470204   -1.45552849840527
C         3.56609913078011    5.03700984998633    1.40771937885688
C         1.71807298917411    5.08768080711403    3.39805403477894
C        -2.17813272025312    3.88015177825382    2.32025199722862
C        -3.82602788812197    3.48460824135481    4.07897260930626
C        -3.22244389963187    5.75490209205790    3.48875124845382
C         2.23556524994396    3.83800647260792   -2.34460092092521
C         3.28836041657190    5.69035991915492   -3.54016651423190
C         3.87831397910546    3.40896004568810   -4.10058293759185
C        -0.01469190255871   -0.88883015359535    0.03647131294627
C         0.86622586887539   -2.91885292073036    0.98427958465289
C        -0.90058078573383   -3.03292357458271   -0.72333250870176
H        -0.62112178839391    4.90407089569669   -3.74668982684115
H        -1.99147424857372    6.03407320754830   -3.69505646181418
H        -2.27733624256231    4.27576847803932   -3.89981532836550
H        -3.73355003420603    4.88184854953853   -0.40498067951234
H        -4.00082474581446    4.27219793277028   -2.05346739209023
H        -3.78278956584669    6.02809399119150   -1.76196469607929
H         3.84897420764557    6.03942707570950    1.70395337781707
H         3.79206459951443    4.88033975189220    0.35826692377616
H         4.05903522431830    4.28542767166814    2.01220495091758
H         2.06026535182590    6.08853080491315    3.63012363689776
H         2.33758436783420    4.33284871700756    3.86665077619809
H         0.68428474654453    4.96667371229846    3.70374046159667
H        -3.57864452256421    3.65509188850461    5.12941983374853
H        -3.62750283672333    2.44685471677112    3.82546018404534
H        -4.88649743336733    3.69890273111787    3.92780950339002
H        -2.96527231662686    5.98885222659769    4.52464399088180
H        -4.26858727287179    6.02074076035026    3.31956590603116
H        -2.58847769281304    6.32922968809971    2.81809976074067
H         2.66439799763994    6.27747807659204   -2.87115754700394
H         3.02493524107400    5.91510021400510   -4.57650384891235
H         4.33805781515909    5.94899183097158   -3.38228877078997
H         3.65140076167038    2.37525992041854   -3.85448324698230
H         4.94084236727268    3.59727495389991   -3.92958584556626
H         3.65388179441714    3.58947119162932   -5.15430657175672
H         0.78234899770041   -3.98889707606333    0.81337529509642
H         0.60816994645174   -2.68981169073000    2.02086480024005
H         1.89685384050702   -2.59891524010238    0.82113141087410
H        -0.31930439940524   -3.68159786779363   -1.38282108571136
H        -1.53002346966056   -2.38198231872500   -1.32560665284735
H        -1.53159205416921   -3.64924491539161   -0.07866686139493

