47
CSD_code = TEPVAL | q = 0 | S = 0 | Stoichiometry = C22H19MoNO4 | MND = 9
Mo        6.26529135762783    1.24863164181481    3.48831419247667
N         5.22388015544122    4.15047838850288    5.38387280343770
O         5.24691602819365    1.63969453610752    0.62270611152496
O         3.35343978127460    2.19945344182540    3.77642049094466
O         6.45905195444106    4.44603418546905    1.51819408498508
O         8.20009552674915    3.34574003900450    0.66331240614525
C         5.65139827396238    1.53960371360042    1.69093352239260
C         4.45765098379422    1.87627621527651    3.67037876471717
C         7.23719685183937    0.07392240669576    5.33327637372875
C         5.99270315154130   -0.51725621398633    4.98098746006899
C         6.11629262470197   -1.04506035573858    3.66824949884826
C         7.40153623898641   -0.71516006657588    3.15979010197533
C         8.11236138663338   -0.03933259867161    4.19231184813332
C         9.45574261771295    0.38870735768871    4.30154325176642
C         9.88857039352306    0.92299442054897    5.48405366894118
C         9.03374015864872    1.02724745473911    6.60169551072353
C         7.73470698335345    0.60220521719307    6.54416826343223
C         7.35538750135234    3.64175774809668    1.67581896874094
C         7.69473293569083    2.90286160800955    2.88788560277097
C         7.12298474992874    3.21526150602642    4.17070840756453
C         5.84742733339766    3.78524477276858    4.23519521074913
C         5.50083966824744    3.48094954275266    6.63471076195854
C         6.71267552720843    4.01514231980951    7.36425483640198
C         7.44329995723361    5.09386932821675    6.88777378962721
C         8.55621432353255    5.54374541942809    7.57820490026298
C         8.94683548499856    4.92585653595348    8.75285062210051
C         8.21177473498294    3.85910564720372    9.24291791151047
C         7.10147606077917    3.40900795761508    8.55321645713139
H         4.26506566753650    4.44326600996615    5.26587137977141
H         7.90774191383594    3.80402411051471   -0.13966285695037
H         5.17774888992831   -0.72900786670442    5.66201583656199
H         5.41297029499100   -1.72648979958142    3.20020954080742
H         7.83180631610215   -1.10727449331107    2.24795339027856
H        10.12866633123416    0.26539207821838    3.46273945941966
H        10.91176641876067    1.25447343172551    5.58252044420996
H         9.42462376124251    1.43697152942093    7.52123091322663
H         7.10205739197449    0.63082074501611    7.42115954673574
H         8.74206417302830    2.60361965208982    2.89240377155021
H         7.74988518970612    3.15871819393183    5.06041116232843
H         5.45999578506606    4.26450065350262    3.33925786447659
H         4.62846189798435    3.58900296885135    7.28502926624157
H         5.64325260904141    2.40272895527430    6.44675550110388
H         7.14093639092819    5.58312992500332    5.97431296945094
H         9.11900005420520    6.38174518969957    7.19462976320579
H         9.81657915810253    5.27619788581447    9.28825878536999
H         8.50379809174479    3.37759283539273   10.16469145869999
H         6.52485691880929    2.58200582579858    8.94316598044965

