53
CSD_code = TEPWIW | q = 0 | S = 0 | Stoichiometry = C28H20Cl2N2Pd | MND = 4
Pd        2.65732186949278   12.95087569188395    3.10187160943495
Cl        4.60895944987064   14.07929741579467    3.48997691791554
N         3.51634288600091   11.29997911660509    3.63448691154740
C         3.53198568257140   10.99867594754100    4.93374048782682
H         3.06870316010774   11.71918062223093    5.60841281167820
Cl        0.71397198573685   11.80201576389659    2.70460302143460
N         1.73352429313699   14.61305168455039    2.68271779279416
C         4.11726594902964    9.83438778730275    5.40024278477301
H         4.12413755293260    9.61995236010060    6.45728637905576
C         4.68800856858844    8.95900457486122    4.49505450807636
H         5.14798656558388    8.04275171590518    4.83523081903182
C         4.66047204738910    9.25881119859830    3.12807070973949
C         4.06187205969517   10.46760549585675    2.75984831032379
H         4.03220079604486   10.78648004095060    1.72069955425833
C         5.24104931182407    8.34027267497807    2.16965000664643
H         5.83914938352756    7.55116222455474    2.60471917158770
C         5.06245684493994    8.40745331189265    0.84170201446562
H         4.44549619491476    9.19533043071823    0.43214039465900
C         5.61522321599526    7.52116293183240   -0.15948009959580
C         6.30737762212205    6.34884642621533    0.14740258390409
H         6.44367533053936    6.06597139796892    1.17976889233767
C         6.81137745320765    5.53427197690006   -0.84685333966346
H         7.34107114050959    4.63070315376130   -0.58386766450801
C         6.63771770716992    5.87081686551915   -2.18257096482219
H         7.03231069328393    5.23140676727083   -2.95803470832414
C         5.95737882404161    7.02385217046906   -2.51799408539135
H         5.81489579379349    7.29624045253804   -3.55362717754967
C         5.44152849807443    7.85358298581007   -1.52243926477951
C         4.75530899762387    9.02839161369116   -1.89182302058229
C         4.16770851081550   10.04112821398769   -2.19204639437662
C         3.47927040567258   11.22173581565941   -2.54276116463773
C         3.33495389315552   11.57295272840374   -3.88798760450377
H         3.76050674275762   10.93856160405500   -4.65121711840828
C         2.63956908920033   12.71759794435691   -4.22693800464884
H         2.52002114998283   12.98518131867163   -5.26655346017805
C         2.09020461604210   13.51799143589132   -3.24232676897300
H         1.54718718443178   14.41107613605372   -3.51581139471579
C         2.24477423140548   13.19694125798687   -1.89039767448421
C         2.93560891443213   12.03603921574283   -1.55137166464262
H         3.02000126419565   11.74147614345828   -0.51410615899554
C         1.66507833351594   14.06975860498969   -0.88349282804388
H         0.84431977806058   14.68685321633114   -1.22672578191892
C         2.07773512460038   14.15296715542144    0.38767519859393
H         2.92418700721073   13.54010650307780    0.73703649606681
C         1.48180296461442   14.98787568081223    1.41744328380221
C         0.69980651692028   16.11656991153006    1.16047818598841
H         0.51709931766171   16.42080653380873    0.14261410648835
C         0.17991216713334   16.84113056635683    2.21457494766212
H        -0.42566664628816   17.71562993015530    2.03171023446937
C         0.44983281338193   16.42982886002143    3.51398096068529
H         0.06239357497557   16.97011210425692    4.36243148864381
C         1.23345202255265   15.30621885852619    3.70027961944556
H         1.47907114581719   14.94452546023947    4.70017614040728

