60
CSD_code = TEPYEU | q = 0 | S = 0 | Stoichiometry = C24H33ClIrN | MND = 8
Ir        1.50225203426788    1.11468183893441    3.81058185242514
Cl        2.01600647792512    2.73603224536073    5.41508226488640
N         3.28612367354518    0.18166656730201    4.32581006451567
C         3.25145420457393   -0.67370680901082    5.30547656667415
C         1.94592894788472   -0.87550575492305    5.89343974591566
C         0.94004780433318   -0.04613566842779    5.34970242838266
C        -0.31749175728642   -0.06114803560093    5.93853165733553
C        -0.60188359537297   -0.91773814911590    6.98708080863707
C         0.37686932090971   -1.76773841784261    7.48405103160231
C         1.64747868057088   -1.73817506020809    6.95270581524857
C         4.46579243016560   -1.36015316232750    5.85446533355942
C         4.56330585359931    0.53369397866484    3.72536198613069
C         4.83397071954859   -0.35357037790249    2.50379060757589
C         6.18979351787501   -0.01523582775049    1.89292463769763
C         6.25073495312958    1.45760172329043    1.49958596951608
C         5.95765579257305    2.34507462316112    2.70592173255877
C         4.60128332972375    2.00617738853901    3.31614985718586
C         0.88733773636963    2.70891266318036    2.09157107329525
C        -0.19711173160638    2.16570387439434    2.89741900866239
C        -0.32616859567120    0.78329915991841    2.57343833730002
C         0.79950905165865    0.43834281561848    1.76033140427290
C         1.47041334987159    1.66657298506295    1.37874895593807
C         2.46376609257831    1.78630493605873    0.26696340768888
C         0.96242455008139   -0.87630570785562    1.06204706935764
C        -1.48911530606861   -0.12265666334096    2.84286091989896
C        -1.20568915916380    3.03598847880096    3.58241998124065
C         1.21471872015950    4.16406829554236    2.03038813404423
H        -1.08614853795876    0.61097690714869    5.59094509825154
H        -1.58932886282944   -0.92067642834076    7.42605167591076
H         0.14827184931374   -2.43642277209709    8.30088340731847
H         2.40547852437075   -2.38121753558244    7.37460193112449
H         5.09790502924648   -1.74943908181766    5.06017533693554
H         4.18054616083848   -2.18498081020013    6.49763205745311
H         5.04797114227705   -0.65466456962904    6.44822451983040
H         5.36583946877586    0.38152645391535    4.45648040050538
H         4.04454992728381   -0.18686488927201    1.77168491836404
H         4.79995186864787   -1.40751934107079    2.78983224811982
H         6.97763828928552   -0.22816986561637    2.61987400447076
H         6.36628902525670   -0.64438916800450    1.01748338615698
H         5.51611498108084    1.65383069732714    0.71633300892654
H         7.23778182472471    1.69162903379745    1.09521376184100
H         6.74012646289380    2.20487898533407    3.45567311814433
H         5.97035971703260    3.39475643203272    2.40726425637613
H         4.41382001101258    2.62778748041537    4.19226823989872
H         3.81375440769903    2.20391310990165    2.59129362139233
H         1.93084099247041    1.92569584880070   -0.67732433634330
H         3.07041898992308    0.88786048252413    0.16875365514740
H         3.12388366711810    2.64180467426551    0.40376819650288
H         0.57386154382757   -1.68680300560743    1.67434593217964
H         2.00649122602495   -1.08698663303857    0.83908881867175
H         0.41309739431344   -0.86696201139789    0.11778620224235
H        -1.95750499153532   -0.39093734427237    1.89434051948036
H        -2.23417306812571    0.37112005776615    3.45970559200825
H        -1.18388711122176   -1.04041852963338    3.34244795616278
H        -1.77021589462634    3.60763832651829    2.84299590300264
H        -0.71015275363253    3.73841233527853    4.24991569733917
H        -1.90603889343128    2.44646231576599    4.16866192098406
H         2.10276857837391    4.34702806877786    1.42983503552340
H         1.38923978456800    4.55282161277174    3.03347889441878
H         0.38214215083281    4.71875722371348    1.59453437010246

