77
CSD_code = TEQBEY | q = 1 | S = 0 | Stoichiometry = C28H42N4OPRu(1+) | MND = 9
C        10.56807703586114    4.55654387535562   21.32113404234070
H        10.83655501927872    3.79059242697092   22.04423955864857
H         9.68408830256891    5.07264317052863   21.68481596802274
H        11.38322970483619    5.27511729580818   21.26643887733897
C        10.28716479107108    3.93122825040059   19.95996142235970
H         9.44589355060866    3.24516812763136   20.06287355486021
H        10.00109829156258    4.70517807413630   19.24351187646502
C        11.52340492615022    3.18585077618162   19.43863973952280
H        11.67164998673906    2.27846810038535   20.04042258310256
H        12.41030939001590    3.81455915345477   19.58412566908203
C        10.40671337091112    2.32733479231338   17.52982931497821
H         9.51167132162064    2.31243648302163   18.14974871696170
C        10.21731135891272    1.79012625062903   16.22355722948058
C         8.89964397972672    1.48443570109847   15.82586391201965
H         8.09589922377727    1.69232055640945   16.51742292011474
C         8.62011853082165    0.94571923148947   14.59837697472460
H         7.60377606469562    0.72740770943240   14.31382763924484
C         9.66937443780151    0.67200936349477   13.71743296341008
H         9.46010460457081    0.24001552116141   12.75068022838913
C        10.96428458062830    0.94775761538347   14.06895910796343
H        11.78237229517022    0.72560530171082   13.39954243518384
C        11.29120439298904    1.51849121494601   15.32322220423314
C        13.36346538313658    4.50351823117972   15.16153611725042
C        12.62627321455690    5.15999305858803   16.17280124815898
C        13.25706256089078    5.49123042747687   17.41693294070374
C        14.51304926141752    4.93550231138881   17.72722127878035
C        15.21466810064773    4.14929129297526   16.74541195944310
C        14.64613536329492    3.95098653247332   15.46017130856417
C        12.83216151738113    4.42108664155835   13.75981602505740
H        12.39446129405340    3.44116179098229   13.56397732522962
H        13.63811280012136    4.57797094555709   13.04641965683799
H        12.07167270248370    5.17463906297738   13.57950051426390
C        11.23607509270402    5.66793980582403   15.89011847953430
H        11.27190459341004    6.63424154319903   15.38389644059333
H        10.67033577624311    5.78686587002571   16.81059946145706
H        10.69197521858487    4.96826452557344   15.25871092301744
C        12.63082518009901    6.53569228161125   18.30105503076039
H        12.13678484762483    7.28529103870734   17.68699271167931
H        13.38759770467292    7.04232411778171   18.89302161573376
H        11.88915295318125    6.11962723825163   18.98073887428315
C        15.19088686975597    5.26112569236276   19.03305499589714
H        15.81329304150863    6.15051266193209   18.91953567469817
H        15.82802538769596    4.44461588194659   19.36043525641106
H        14.46821740879585    5.44997316815577   19.82230402736483
C        16.64567320507527    3.78163340599710   17.04352793062462
H        17.15767816094354    3.39136690392742   16.17135484380664
H        16.71347866713771    3.04068927974896   17.84007483180116
H        17.18304885802259    4.67198804398151   17.36866910405103
C        15.37660700925147    3.21982792566898   14.36627433365912
H        16.11920258950097    2.53257153705648   14.75882506336589
H        15.87648321505818    3.92868951755016   13.70430083727476
H        14.67513043045855    2.63258167627667   13.77856671461161
C        14.94570125663599    0.94184512818752   19.54582849899988
H        15.84949558477619    1.56070540110259   19.54890031369248
H        14.30748405324655    1.26548666306020   20.37571556050236
C        15.21644817144203    0.22241071805882   16.85063524958696
H        14.73909472710619    0.08015669821641   15.87429021102809
H        16.13214672993651    0.80755237480348   16.71250545479755
C        12.81619054043803   -0.23795805947742   18.17397432147726
H        12.08432960460487    0.03797647548619   18.94295597828510
H        12.28093025431660   -0.39853907724499   17.23052380148050
C        16.21778286522938   -0.92314634582270   18.70803531869552
H        17.06722199892321   -0.24145134714667   18.61361708422194
H        16.58570943645905   -1.90668778493652   19.01158911647171
C        14.40732779042557   -1.92767274840666   17.55699058153351
H        14.75770550591394   -2.92181819923267   17.84664976884304
H        13.89061786805204   -1.99568809836792   16.59691721714847
C        14.17272853475771   -1.31872534685378   19.83461159300784
H        14.52446666675596   -2.30600929092767   20.14512298914351
H        13.48086368649178   -0.93507357363347   20.58881869368966
N        11.49338572958132    2.80270668451139   18.03649887250793
N        15.32498408193102   -0.43554361064340   19.74803239312742
N        15.56524593851053   -1.06001387359287   17.41686583545393
N        13.47318843187614   -1.46192840043630   18.56924119503937
O        12.53960732583051    1.71965514617471   15.58130505482795
P        14.02678268267943    1.16252191527562   17.93065986415061
Ru       13.21227696609983    3.10222714929736   16.99184256892103

