103
CSD_code = TEQDIC | q = 0 | S = 0 | Stoichiometry = C48H48ClN2P3Pt | MND = 4
Pt        1.92062068713048    3.47878864027217    2.13602268760494
Cl        3.81052401337290    4.89449846898624    2.02701315268715
P        -0.58682408218231    3.95674826141380    2.96712510739793
P         0.32768119580250    1.31870891660822    3.76349267213737
P         3.16915118637623    2.37644173619083    0.60493783940252
N         0.77499569596950    4.57016019287339    3.57081279249741
N        -1.13935077851338    0.90769037662509    4.15941331899344
C         0.14262952971879    2.42620548223919    2.33157917026406
C         0.89816108601494    5.85058905281608    4.09902588279225
C        -0.17858471615588    6.73320261501768    4.14709258258715
C        -0.04696976915453    7.97940135798464    4.72667989606693
C         1.16512485386265    8.39084868564263    5.26196587440167
C         2.24241310397720    7.51216204067779    5.20209100374346
C         2.11885718105699    6.26147564956340    4.63709089222646
C         1.32406638703303    9.74500867248721    5.88647472648108
C        -1.19922887997070    4.89898060204032    1.52617210443410
C        -0.24242636025239    5.22484452476562    0.56847359409248
C        -0.58064086483901    5.99808946612383   -0.52491508598175
C        -1.87881588162535    6.46366664703670   -0.66305422230829
C        -2.82786202842825    6.16560280009821    0.30133197264958
C        -2.49282288889790    5.39144381807195    1.39838040586734
C        -1.96649601034536    3.77549936979159    4.12297965606184
C        -1.79664925510739    4.14497764157876    5.45090366193745
C        -2.81492739186340    3.91947490011662    6.35929839513185
C        -3.99515574116303    3.32517435949814    5.94507989803399
C        -4.15995769853636    2.94880429386184    4.62089859219872
C        -3.14588538626229    3.16519531985778    3.70833774374531
C         1.36494580184985   -0.07877038555734    3.17258126918792
C         2.70108379069765   -0.30573865916142    3.47980533562975
C         3.34148298764904   -1.43374089973168    2.99430996464972
C         2.65699128593098   -2.35018594835113    2.21383220485985
C         1.31281033355514   -2.15201225271163    1.94070824409812
C         0.67106044832434   -1.02809140638402    2.42590763155384
C         1.33270575841862    2.14802350571715    5.04968322443524
C         2.63639101018701    2.61298935902060    4.88348888240881
C         3.29278392379766    3.21086477223821    5.94370065865816
C         2.66211392438296    3.35462932745166    7.16988836753128
C         1.37007435375683    2.88896355222867    7.34052117620232
C         0.71142689181687    2.28113862231358    6.28619307141635
C        -1.49330951220481   -0.09899276494742    5.03282942812190
C        -0.58492008362341   -0.85952044069376    5.76863721545148
C        -1.01672720842008   -1.85645810673270    6.61912501544964
C        -2.36861994167309   -2.13082359746904    6.77218407777446
C        -3.27707966284822   -1.37058666744184    6.04313798159177
C        -2.85455884211109   -0.37561175980189    5.18864267368832
C        -2.84662441960921   -3.22354152474056    7.68254287997253
C         3.43501475884391    3.44747437202447   -0.83880025529822
C         4.66152931866293    4.01887204401600   -1.14936871882487
C         4.77354113781729    4.86111884988645   -2.24185962296173
C         3.66740850097727    5.14255886700762   -3.02560276401583
C         2.43840372408925    4.58501838559546   -2.71166465928843
C         2.32187805131731    3.74494164448642   -1.62081138851679
C         2.61741897706091    0.83070229394278   -0.22598028817796
C         4.82599951350324    1.85519511506224    1.16652039027006
C        -0.64804244525703    1.76659264131334    1.21306207072412
H        -1.12749284479635    6.42323139283814    3.71814332406286
H        -0.90067586326012    8.64286025722149    4.75276345740661
H         3.19715615683964    7.81700258509172    5.60686978681889
H         2.96667226151524    5.59665718113739    4.58769270611722
H         0.78856960822391    4.87841750610007    0.69595111823947
H         0.17131779462121    6.24379972397632   -1.26013610685141
H        -2.14840752611879    7.07021357714725   -1.51493616819445
H        -3.83503254759196    6.54368039468981    0.20280279379060
H        -3.23381901466932    5.17810264874013    2.15596589030596
H        -0.86785715319429    4.60330782399750    5.76323572117235
H        -2.68493808497092    4.20418195210852    7.39322904944063
H        -4.78688533223057    3.14524700127685    6.65730904939190
H        -5.08016709006285    2.47874350606340    4.30441802808297
H        -3.25347995972322    2.85055823297728    2.67938060190610
H         3.24005486476132    0.37844761626852    4.11609009606227
H         4.38113721136247   -1.60351251724988    3.23672909599766
H         3.16335918275825   -3.22707519170604    1.83820016648603
H         0.76459512640519   -2.87906626449175    1.35944786569735
H        -0.38725820924101   -0.88633884391492    2.25612955328698
H         3.14131686520034    2.53239882400129    3.91992253603557
H         4.30138301979538    3.57402627616595    5.80857482756528
H         3.17831763470398    3.83307331740335    7.98929193899009
H         0.87294049151004    2.99856987096748    8.29354539068002
H        -0.29851974401063    1.91240152150329    6.40865452470947
H         0.47405711549835   -0.64528083977359    5.65904546977459
H        -0.28720448981894   -2.43017094438043    7.17516686743652
H        -4.33573343121088   -1.56666914056497    6.14849011073118
H        -3.56806150836431    0.20860208561131    4.62669381098847
H         5.52137660977007    3.82711921676122   -0.52716151973921
H         5.72870934205034    5.30668530257889   -2.47776615284269
H         3.75996247763016    5.80355964217955   -3.87476031578795
H         1.57100171881175    4.80978306792271   -3.31593524696386
H         1.36053526236017    3.31995843907854   -1.36132307170986
H         1.56685211932651    9.64984477500074    6.94479724136868
H         0.41002138128021   10.32629872736494    5.79273640227867
H         2.13530066422647   10.29173763533680    5.40758456556107
H        -3.21239754904320   -4.07010039317995    7.09985442025796
H        -3.66564593388490   -2.87286245500774    8.30899887471093
H        -2.04137278575517   -3.57392322321087    8.32405976433884
H         2.45383791888139    0.05323636227063    0.51689368148865
H         3.39079639888735    0.50940062933839   -0.92301641392574
H         1.69562728211040    0.99934663312483   -0.77621669366838
H         4.69812391254475    1.03623594000403    1.87447416857891
H         5.31905889885944    2.69021687112189    1.66089460982717
H         5.41370493818416    1.50964924012029    0.31600047571871
H        -1.56333280460872    1.32052206022800    1.60853182042950
H        -0.06160340878738    0.97616005283390    0.74645820450289
H        -0.92121054062618    2.49632909211854    0.44840529768873

