130
CSD_code = TEQFAX | q = 0 | S = 0 | Stoichiometry = C42H80BMnN3P3 | MND = 6
Mn        7.95647861465176    4.37777026713181    1.91925194943505
P         6.26942585079111    5.16522917848210    0.51747382697505
P         8.96072330481420    6.45063748934706    1.72977123303175
P         9.16698775400120    3.72371915676996    0.04210449127822
B         8.41192270192095    6.26319225726172   -1.17235975440902
N         6.84907523387868    4.66858961082175    4.66766526477520
N        10.05127891687083    3.21294369206636    3.69851252271958
N         6.50375046457907    1.80436599809187    2.32886870695067
C         8.58227432259970    7.17877030961161   -2.50320244035945
C         8.35664917312533    8.55516655488334   -2.42978826743908
H         8.08790199189215    8.99703684025294   -1.47807119583201
C         8.45475451236162    9.38520454228132   -3.53053845839301
H         8.27228129324666   10.44755478136081   -3.42648462780760
C         8.78393572565977    8.85962450042654   -4.76825090968882
H         8.86489315326231    9.50241758104518   -5.63440438560442
C         9.00118826433204    7.49862567856906   -4.87992211521406
H         9.25167923954202    7.06962777486546   -5.84227518916829
C         8.89726285478595    6.68211173691527   -3.76655341906035
H         9.06458362610458    5.62161793811362   -3.89999560850065
C         6.82984644149928    6.38481533258701   -0.71928177534812
H         6.18028422871903    6.30408767060970   -1.59256874906221
H         6.63555151191654    7.36983702307874   -0.28507809927195
C         9.41124492881753    6.86409158034091    0.01183326439232
H         9.47615124408630    7.95349331900357   -0.05138577230200
H        10.42120600936569    6.48385102170571   -0.15567898317117
C         8.73594196080152    4.66692357616297   -1.44940799371705
H         9.53682299835150    4.51248875925700   -2.17242888362674
H         7.84212623544681    4.18007801543434   -1.85381332084148
C         4.30375594133381    3.12123560000317    0.24676512340768
H         3.38548378304046    3.70056905221304    0.19269441443008
H         4.57505749932453    2.97549265575130    1.28755970416487
H         4.10368523030374    2.14622754151348   -0.20042699120137
C         5.43591761710435    3.81193517821722   -0.51017169896136
H         6.23815000844185    3.07047369117499   -0.61574076455022
C         4.95819587802877    4.17327954501159   -1.91556096291333
H         4.49583367992902    3.29188446661867   -2.36275778377295
H         5.77738956258549    4.47771636382199   -2.56253700037533
H         4.21582570112006    4.96677711294560   -1.90076831699292
C         4.15472952214629    5.44759894830643    2.45479969456308
H         3.76344136008597    6.19236811831608    3.14786739746375
H         4.85827882953703    4.81028720484038    2.98859174831070
H         3.31888823810536    4.83951623128901    2.12092901483294
C         4.84898906643418    6.14021396756619    1.28331206995959
H         5.39276826731564    7.00077064214378    1.69521776878696
C         3.81617775369404    6.68737442588384    0.30119154719623
H         3.17980079382473    5.89687237432879   -0.08825203905814
H         4.28655587350191    7.19985639885000   -0.53403620607747
H         3.17467391460450    7.40307874268391    0.81695796891045
C         7.21380208825957    7.92803614627326    3.48179622985505
H         7.84258735624009    8.04246205020148    4.36122603141349
H         6.71095310543852    6.96572126470233    3.53942764245061
H         6.46233592497735    8.71918312055464    3.50565013873296
C         8.03450083394226    8.02809039563460    2.19941376162359
H         7.32957782380906    8.11019489565068    1.36280410998654
C         8.84782491368083    9.32048507140821    2.22041749673961
H         8.16381109440122   10.17017993512090    2.20384603243276
H         9.50513926655199    9.40891253081615    1.35932630462962
H         9.44379532003468    9.39962304176498    3.12642008620474
C        10.29004197545292    6.67270303796968    4.20355968889160
H        11.17230701039103    6.39734954613308    4.78321576717578
H         9.46788684346633    6.01329876597297    4.48198934490781
H        10.03246650533248    7.69478652757425    4.46872803478381
C        10.57462588518935    6.54152858271995    2.71003426863179
H        10.98784726619685    5.53364632953279    2.56151016515303
C        11.63980313602939    7.53730157980104    2.25879812135289
H        11.39850989983927    8.55297498767480    2.55508842949028
H        11.77649656738792    7.51774663972044    1.18022795663633
H        12.59278507148212    7.27543793462247    2.72099155709201
C        11.73951517642931    2.69146323318140    0.76547228147161
H        11.83534502966859    1.86491685960923    0.06597398198797
H        11.18654490237766    2.35904232846468    1.63831828867417
H        12.74727605533309    2.97455052065211    1.07486063753366
C        11.05233320904459    3.88826644277195    0.11306622133452
H        11.19557624817136    4.73847383135288    0.78932559410052
C        11.77488131147468    4.22813018324334   -1.19062170393995
H        12.84433796384386    4.29837316716113   -0.98525141697534
H        11.45526473078839    5.18278222484091   -1.60072846871904
H        11.63316279374647    3.45985327408470   -1.94638267778533
C         9.14781053841247    0.87587503608403    0.51830056786128
H         8.48625464567554    0.02406014778062    0.35975576183894
H         8.97592919706759    1.26238371932879    1.52191430582044
H        10.16877966224209    0.51130186528379    0.45110885646658
C         8.86369711156492    1.95056982299860   -0.53225965075131
H         7.77331729046436    1.96292291632787   -0.67781127353006
C         9.49294528266773    1.56821894539413   -1.86891620017282
H        10.57315913461355    1.47569599694695   -1.78773228771875
H         9.26155499564148    2.29576669050697   -2.64266593752932
H         9.10114746595033    0.60183960723823   -2.18888922528079
C         7.20904397572985    4.70933679384907    3.53648991610440
C         6.40391614589318    4.86073894202904    5.99562802461758
C         6.26969407389288    3.49051997677281    6.67110508008055
H         5.53135405538828    2.88153277325585    6.15549152316974
H         5.95713632548773    3.61485524518826    7.70468784872249
H         7.22210073637395    2.96646766478319    6.65555218747596
C         5.04333004054509    5.56938394874161    5.98448004337814
H         5.12394908896789    6.53210807977101    5.48613030161002
H         4.70427805122405    5.73040680919983    7.00472244993272
H         4.30423447240411    4.96767170484361    5.46126666642036
C         7.42902424530850    5.71554038187672    6.75107396698401
H         8.40092270579944    5.22947853351554    6.74983508744906
H         7.10806072294764    5.85444055375404    7.78036997758336
H         7.52658489304038    6.68984678286437    6.28019762399086
C         9.26762483789596    3.69428414992862    2.95600384824533
C        10.89921157509144    2.62730955651826    4.66391144115976
C        10.37602834452304    2.98909508055469    6.05835612990172
H        10.39742391086378    4.06727233305807    6.19786994034895
H        10.99275247087864    2.52308823591196    6.82284272254143
H         9.35190958501782    2.64190682234900    6.17212052148281
C        12.32043356671078    3.17346662248237    4.48389147639672
H        12.71286985007060    2.90407965148749    3.50737350517925
H        12.97386386755762    2.76126180264004    5.24877387515088
H        12.32106301221591    4.25727550946564    4.56992377481672
C        10.88499102028651    1.10523128784952    4.47590228431164
H         9.87457805168101    0.72250115700948    4.59808445279888
H        11.53139979527581    0.63404907436207    5.21207920939524
H        11.23732703106732    0.83937019827116    3.48197390037153
C         7.09214921300817    2.80616353739329    2.10316176096528
C         5.89482278453586    0.71367073835054    2.99210158532842
C         6.86146623363867    0.21286146955844    4.07240557140182
H         7.78195830294504   -0.13970310773550    3.61236544821182
H         6.41302376211646   -0.60417021966811    4.63232025018704
H         7.10235880689707    1.02529082012412    4.75462504230745
C         5.61226070073547   -0.39195911898486    1.97095112116589
H         4.98074551484566   -0.01222476855095    1.17150218735563
H         5.10596769854437   -1.22421821223016    2.45323869208837
H         6.54157745907330   -0.75147399874453    1.53632412408151
C         4.58383987284812    1.19061680371701    3.63078846355350
H         4.76606509907106    2.07981941162275    4.22989215429766
H         4.17219479814553    0.41050955994877    4.26650878702496
H         3.85261159028884    1.43724776782944    2.86504221071478

