143
CSD_code = TEQFEC | q = 0 | S = 0 | Stoichiometry = C60H76CdN6 | MND = 4
Cd        4.22512746822049    5.59408907857450   17.87915632288228
N         6.38483913403801    5.66581093362290   18.55067657899681
N         3.89169865763171    4.29490949738071   15.26334461159490
N         4.78362862128782    7.52544694253736   17.24764959200613
C         6.87785654728511    6.80843600871199   18.19343774756971
H         7.92913123591894    7.04445458106651   18.37415598603315
N         2.55091353729004    9.45038782705846   15.23387346509475
N         2.80186879204427    5.94070140571004   19.88359724222042
C         1.77968931639832    4.90019719158373   16.10560041760371
C         8.35376878088258    4.07629953366993   21.24393396449407
H         8.77361863121276    4.30958202827224   22.21038921411512
C         6.13357663203618    5.80433225822568   14.49548502214297
C         3.27858254530784    7.69353091346676   21.48692094240043
C         4.72525506560144    3.72543112742224   14.30633209730622
C         7.66940326959115    5.06131235030818   20.54346047381424
C         6.77534146345886    3.84429989833173   13.04456675782007
H         7.66543310318539    4.37619584139877   12.74888399757331
C         7.13966381724542    4.74008449980936   19.28193491174958
C         2.96045675128299    8.58482097258272   16.06436447652567
H         2.31956886135536    7.77428832035366   16.45097254257349
C         6.52418596030670    2.59544306469159   12.50643102808513
H         7.21397077484340    2.15989236539597   11.79877212414432
C         3.20295711455885    8.74653363131790   20.40325266786526
C         4.31733398545161    8.56241236206695   16.53037401293846
C         0.38786834190226    5.12742503790215   16.12462675970561
H        -0.28681574160597    5.00075675133081   15.29954538059509
C         5.38536925204314    1.90901539532788   12.87656414881836
H         5.19854147032459    0.93489630634046   12.45099626030547
C         2.63818626019824    4.45601935204420   15.05497610788723
H         2.17816661957438    4.28158893551419   14.07711800674774
C         5.89754617882008    4.41769565270341   13.94851979590116
C         4.46962091986220    2.44806153414518   13.77003040704849
C         3.09326982670032    6.33293200156750   21.19982261635402
C         2.09918421553842    9.76144077479899   20.70637258581088
H         1.14689788604341    9.25634926864313   20.85554185633652
H         1.99949617019015   10.45967734872716   19.87876638709101
H         2.32653312526882   10.32853370457216   21.60594448268814
C         1.28640861535359    5.56675262064536   18.12606736302222
N         2.29401747428365    5.15427568439007   17.32317000714215
C         1.59009116577101    5.96928155592123   19.45607407168385
H         0.76438148128157    6.29684944586040   20.09566457736360
C         3.61829890904621    0.21107188569501   14.57850283217239
H         3.99441593400842   -0.37546728148854   13.74438625787648
H         2.73704080750297   -0.29126364725051   14.97213009853275
H         4.37861957403480    0.22769287906732   15.35570489045890
C         5.53753267089584    2.21427660258241   17.49588318293657
H         5.77263036300286    1.30401597275455   18.04457201156217
H         5.18669374262349    1.94698102767960   16.50270736172291
H         4.73097146977561    2.73734870260882   18.01614123002908
C         6.09941426214152    7.76724841285433   17.50896416790142
C         3.24928360076774    1.63186295675307   14.14007662579977
C         8.50915983445769    2.80399562734522   20.73172466912972
H         9.04260652401663    2.05396785474851   21.29645586962318
C         6.77471010519357    3.10755330337518   17.37450874970440
C         2.27628086818942    1.56634957423119   12.95812021106751
H         1.98200502404227    2.56265569278958   12.63518839382845
H         1.38048711166478    1.01594980623689   13.23836745183462
H         2.74005198100536    1.06368475524885   12.11232291664303
C         7.30955392639352    3.45161436718657   18.74711696374477
C         7.98380800913764    2.49677447377061   19.49050759956687
H         8.11207141030998    1.50205299868310   19.09259416184233
C         3.11978431814557    3.87682294613882   21.97569644610325
C         5.34483160304387    9.51332406807269   16.33351335006682
H         5.23854770909032   10.43753398811068   15.80051698746704
C         3.47407867208874    5.80287297518843   23.50826350758511
H         3.55455296650737    5.07100969241777   24.29962187057373
C         7.49304938899628    6.42384832654799   21.17583592009434
C         3.55008186346719    8.07638934257073   22.79261389495777
H         3.69012866112754    9.12172314991164   23.02236483415218
C         5.47349292410437    6.83713048484260   13.57754445506979
H         5.89719256975880    6.78158980488832   12.57614222796129
H         5.62692757886264    7.84026708341610   13.96903090849860
H         4.40414458313995    6.65495396882464   13.51382486298832
C         6.46820552372440    9.01376298034959   16.95444296403375
H         7.44007982545321    9.46730867233863   17.01404391553098
C         3.21858350500045    5.36962469399382   22.21381356506672
C         0.07436482489281    5.54343444138030   17.40471109578975
H        -0.89686589327639    5.79661303908224   17.78599929227217
C         7.61153599076427    6.13843185881676   14.69109075039534
H         8.11436816602805    6.28034244521206   13.73734548944710
H         8.11853983967798    5.34811119431666   15.24059448973980
H         7.69990604451424    7.06470195940381   15.25469606364962
C         8.83156760163496    7.16569242881975   21.23923049489828
H         9.53668913218316    6.62702059832468   21.86809578653899
H         8.68836814952631    8.16046644636316   21.65551141803052
H         9.27247452630126    7.26653875424075   20.24960249201371
C         4.55121285489803    9.45360529005295   20.24704988019639
H         4.81896252007706    9.99246307122401   21.15293893021012
H         4.50782847607078   10.16197094233504   19.42246677323855
H         5.33316525815539    8.72856217610520   20.03103744871794
C         7.83325966475945    2.43106787602400   16.50035976670184
H         8.75568022397676    3.00827156458424   16.49972006126793
H         7.47053323123617    2.35724336502327   15.47725117708507
H         8.05838413824448    1.42803062879586   16.85396133372042
C         1.03124207624109    9.36411855983254   13.39704396056795
C         0.40233038364422   10.21987924969249   17.08058209967603
C         2.15434491659994    8.84002048834152   12.53319719437279
C         1.25504591639082    9.56329104844588   14.76987775714792
C        -0.23379227708557    9.57263754070989   12.87792189265740
H        -0.41705100918017    9.40123454056108   11.82788563006856
C         0.20480242394004    9.98600334878133   15.60020219547194
C        -1.27089823262598    9.99728448956838   13.68835455698800
H        -2.25382222573599   10.16310464341861   13.27210610006178
C        -0.42537973310206    9.21434025842654   17.88435754199732
H        -1.48325009661001    9.31519565466865   17.65312717955499
H        -0.29008866837702    9.37791908633199   18.95090318484937
H        -0.11780600516045    8.19828429573738   17.64545475016912
C         2.29427586399662    9.61289090904402   11.22239271337447
H         1.43913476531448    9.44826724708418   10.57157355247469
H         3.18825431149703    9.28735619174944   10.69424893651163
H         2.37785824312783   10.67877325640459   11.42068454151375
C        -1.04363021402175   10.20197864919875   15.03473421978378
H        -1.86005463722692   10.52864186426858   15.66195494495719
C         1.92723651758081    7.34967970206287   12.26284074302792
H         0.99199192055950    7.20068112275092   11.72650610864987
H         1.87295824116043    6.80116293797676   13.20226294235163
H         2.73856189441570    6.94070344054080   11.66343737533265
C         3.62881814108962    7.14318991904088   23.80638394293306
H         3.82136225036089    7.45455349402459   24.82201690200907
C         4.21783147312898    3.38968177998360   21.02823014804941
H         4.15273366438936    2.31021258986322   20.90650448694662
H         5.20299878284179    3.63168447959757   21.42256512160996
H         4.11300235212935    3.85926071803909   20.04745901681215
C         1.73876188511206    3.42950990267115   21.48660462588530
H         1.58204373891907    3.69250698162851   20.44377658530836
H         0.95553334956920    3.88910110846871   22.08622553870508
H         1.65010580466566    2.34875711313583   21.57880970798075
C         0.04087256545547   11.65654338277166   17.46518939385809
H         0.62394051599306   12.36085515950285   16.87587253960822
H         0.25105736216323   11.82849562621908   18.51938930423043
H        -1.01372275224971   11.85562575968952   17.29311447609875
C         6.88419279387185    6.31700817024478   22.57504161684388
H         5.96072544735638    5.74511738837946   22.54473019610769
H         6.65238449371521    7.31011072312790   22.95313204423885
H         7.56838459986232    5.83992558122579   23.27190421163070
H         3.28728842733504    3.39483839405477   22.94686584808157
H         6.79838437829157    7.01232090455432   20.56774094647765
H         5.63337344504549    5.86438578288219   15.47183568601375
H         2.97183910185863    8.26343977079832   19.44637362455536
H         2.73909974219283    2.11245693362387   14.98212483949129
H         1.45829074535828   10.06590387492899   17.32683333529011
H         6.47541845697251    4.03215748100067   16.86843645666508
H         3.08598896084386    8.95376822835413   13.09761417091419

