57
CSD_code = TEQGIH | q = 1 | S = 0 | Stoichiometry = C20H26CuN10(1+) | MND = 4
Cu        0.95290623773916    9.11284044501499   21.60370168472885
N         0.20480500513039   10.77974837208883   22.37472098462767
N        -0.57425957030416   11.77934773705872   22.12435369668755
N        -0.45288057594189   12.60271052115477   23.12013954186021
N         0.38467868961213   12.19410970538224   24.03772140912775
N         2.00506921970233    9.03449829500765   23.34715493084467
C         0.80343115135491   11.03321410419081   23.55933957532087
C         1.75155965879168   10.09972101441281   24.12150610492545
C         2.35242287137635   10.28625042293145   25.36160020302115
H         2.11185828469802   11.16235566194201   25.94146276062476
C         3.24736229541417    9.32934227465283   25.80829662374533
H         3.73553216970177    9.44021087477784   26.76401855646038
C         3.50508791508451    8.22602374595057   25.00524498416578
H         4.19560619196773    7.46044545899948   25.31965367721747
C         2.86017725005293    8.12179489286091   23.78305200675170
H         3.03324432867364    7.28022545115906   23.12724607981417
C        -1.14609110525219   13.87499540963331   23.21371892461782
C        -1.85442617183869   13.91306238728472   24.56665801611191
H        -2.59470498638060   13.11906248463813   24.63549036987028
H        -2.36049071590368   14.86618957672148   24.68700122297751
H        -1.13567210864142   13.79420817098191   25.37318685920574
C        -0.08234692618007   14.97028901271318   23.12421926300495
H         0.64796013845961   14.85359417313765   23.92113180985152
H        -0.55171337629073   15.94458971976907   23.22148478530169
H         0.43123611490671   14.92881597356442   22.16606053658932
C        -2.13518937141596   13.96437149305916   22.05991760721237
H        -1.62036251531154   13.90730805676695   21.10477766513945
H        -2.66772726574550   14.90935112657040   22.11411214712779
H        -2.85810570301470   13.15428902539390   22.10754378997552
N         1.70383908767950    9.04121472685069   19.76810196223246
N         2.48208282793061    9.65674516674581   18.94092314245037
N         2.36701928447472    9.04795727071457   17.80058061911365
N         1.53480735451109    8.03932822862805   17.82758382120928
N        -0.08873145343320    7.46730867206030   21.00934833765670
C         1.11262742795480    8.03846961202335   19.08200940456540
C         0.16948759631676    7.15718488830266   19.73037874103337
C        -0.42003780423902    6.07460010439205   19.08689842574007
H        -0.17625427791862    5.87248310775856   18.05669915978782
C        -1.30755918375737    5.28913524307972   19.80214730595988
H        -1.78545553383419    4.44092147842433   19.33715338613431
C        -1.57032896142780    5.61149805612431   21.12716367142245
H        -2.25624017031882    5.02381386257770   21.71542052314248
C        -0.93747046418577    6.70963561124495   21.68756185645152
H        -1.11617409608703    6.99688503225816   22.71403130208300
C         3.06467435176257    9.44621551895887   16.59115184225698
C         4.03402878249609   10.56483495992796   16.94716676751853
H         3.50225853955974   11.42394082270039   17.34690068855676
H         4.57350012055944   10.87148904323607   16.05593306556544
H         4.75222721724776   10.23099093792530   17.69126644755134
C         2.00292430652128    9.92177459757444   15.59844810429884
H         1.29282267215061    9.12434776712542   15.39351186189715
H         2.47840590346642   10.21344965387995   14.66685078649719
H         1.46475652621132   10.78026278447672   15.99438250840301
C         3.79631399219793    8.21561750873887   16.05804626977464
H         4.54225930272167    7.87257483557451   16.77169742271207
H         4.29869607786758    8.46396943056499   15.12798754016356
H         3.09195344312984    7.40918549031270   15.87063921891101

