64
CSD_code = TEQHIG | q = 0 | S = 0 | Stoichiometry = C28H35Ta | MND = 11
Ta        2.41825237096874    3.59414598746919   -1.13520474835812
C         3.89880857381976    4.26751966146612   -2.86806111956535
C         3.05901871338431    4.34834987281877   -4.06709908260238
C         2.10493507904059    3.41620980947112   -4.21676360404610
C         1.97968607762914    2.40136653854673   -3.16644595041250
C         2.25051476442795    5.88244852043038   -0.56836727400086
C         2.56062772833814    6.83318857208305   -1.64643038883017
C         3.78544159384664    7.50204260108309   -1.69769006105903
C         4.08045129460258    8.37062756213083   -2.73170006830189
C         3.15663191148715    8.59327282066035   -3.73864962997480
C         1.93364876259764    7.94172059249021   -3.69882913005832
C         1.63722263834784    7.07407696824830   -2.66692534791345
C         0.04896164058653    3.44003473311146   -0.86077640718911
C        -0.77104297577882    4.46962815398172   -1.50877265099910
C        -1.28140574231178    5.55215586303371   -0.78572713261031
C        -2.02274411658567    6.54044987211789   -1.40493624211715
C        -2.28057905392840    6.47122474254668   -2.76389835482808
C        -1.79785449564411    5.39626618801479   -3.49439886969035
C        -1.05791787579992    4.40817056333810   -2.87613195819912
C         4.77108146135364    1.02468124222562   -0.91492759813856
C         4.79753541347271    2.18808487786612   -0.18796884178223
C         3.52907883438743    2.31033248284264    0.53062925976730
C         2.81200070207934    1.06199406331886    0.27072196898341
C         3.54210387972275    0.32797526530255   -0.63078991755981
C         5.80055450517758    0.50075469312545   -1.86036946674871
C         5.91370653373289    3.18022908789119   -0.06715828350856
C         3.47603831814443    2.97545130657612    1.88594380360541
C         1.53878813321875    0.65107104559949    0.94550202772007
C         3.18515182161523   -0.99036569309751   -1.23237260302262
H         4.57889938403664    3.41038107555846   -2.92082128064860
H         4.48048920552718    5.17399078414852   -2.70453122980563
H         3.17234009114066    5.17423336078819   -4.75535560764388
H         1.40374439268346    3.44164340653762   -5.03978176341743
H         2.83290356004566    1.71454689695771   -3.16828370927971
H         1.06087529814848    1.82003411870948   -3.24021576927333
H         2.93292306459807    6.02854436475309    0.27712908499542
H         1.22799341575635    6.03574732283517   -0.22310788014437
H         4.51275270719192    7.34091997511155   -0.91192243765060
H         5.03457788129570    8.87839639647299   -2.75153377424594
H         3.38693394387484    9.27286637097460   -4.54600465717356
H         1.20588082511872    8.11300622205079   -4.47881863420113
H         0.68495743950069    6.56671056099801   -2.64333905824785
H        -0.21425188818779    2.44724319874839   -1.22841442409465
H        -0.09757262857573    3.46442432440564    0.22435381024596
H        -1.10524281044775    5.60899126706015    0.28077196199158
H        -2.40527026967967    7.36777838736827   -0.82438584524021
H        -2.85921469214267    7.24384337341226   -3.24789330152463
H        -2.00401490688018    5.32966000433514   -4.55306578700746
H        -0.68867259441813    3.57323182832944   -3.45158579094205
H         6.19773026090289   -0.44898095356335   -1.50100530785717
H         5.36333714977595    0.32327076223223   -2.84416369268406
H         6.62813963704875    1.19656955792079   -1.97182006036654
H         6.48264935093941    2.99670976473234    0.84715299931746
H         6.60022727546459    3.10442788325155   -0.90753090420129
H         5.53619724848502    4.20347401259177   -0.02941886960948
H         3.95288086406126    2.33859936043231    2.63383788898662
H         4.00428999562501    3.92945171750952    1.87675394494583
H         2.44833812054701    3.15255955589355    2.20788898341905
H         1.04769806347086    1.49977269610665    1.41768978407156
H         0.84152729612038    0.20246157779800    0.23813573404360
H         1.74744744623500   -0.08921908838399    1.72052358894248
H         2.19380760346363   -1.30693165683098   -0.91845920289582
H         3.20480681202056   -0.93634959181665   -2.32165132311800
H         3.90279496533397   -1.75301683209094   -0.92742979828433

