67
CSD_code = TEQJAB | q = 0 | S = 0 | Stoichiometry = C22H30N4O8S2Zn | MND = 6
C         9.13782677991101    8.73659196853836    7.34808486997782
C         8.78023561507343    7.34726819434531    7.74459822947176
C         7.78465767332528    7.30682894717771    8.70382236350691
C         7.32247225449446    6.11566059088866    9.21363936929563
H         6.54294343479117    6.10350731823817    9.95852969832585
C         7.89304648642810    4.93927450871574    8.73955653455803
H         7.55184478264132    3.98983554849641    9.12380831748127
C         8.89399531509406    4.97122131406223    7.77881174250000
H         9.32149149709773    4.04502399682444    7.42494545310949
C         9.35097675716413    6.17710042646814    7.26888539248785
H        10.12843674622701    6.22179939098988    6.52209145459066
C         6.48921237147240   12.70858682408433    9.79169363042509
C         5.58036224971784   12.37309982791672   10.91779956217020
C         5.47217535210918   13.41631167802317   11.82175003356001
C         4.69676148944712   13.31850835194121   12.95145299477899
H         4.62478491152628   14.14001877003709   13.64656772714398
C         4.01224129415659   12.12503607669469   13.15988406967074
H         3.39213873598323   12.01654087416426   14.03744779633158
C         4.11593914296656   11.07443981306604   12.25806968716871
H         3.57262815064309   10.16036758341481   12.44614683076335
C         4.90474647352459   11.18072186241459   11.12126030740255
H         5.00887414942564   10.37852289489543   10.40727036317466
C        10.82430537406464   12.83700819779161    9.52877518785951
H        11.48659556236305   13.04482278131164   10.37951006834280
H        11.42258522943034   12.56923122558303    8.65655613243183
C        10.01844375229786   14.09319009430213    9.19211992735534
H        10.69136152090611   14.83587178377408    8.74513975552829
H         9.57360880394037   14.52538652295520   10.09330891587732
C         9.30189164735014   11.88560705399931   11.12560231632653
H        10.05777520286568   11.86009584777265   11.91981109102456
H         8.58900822541671   11.07869685089383   11.28372998045339
H         8.77713200761669   12.83557711064461   11.18773126461388
C        10.73224755377621   10.47995166529536    9.87743195277591
H        11.18892312199213   10.27792538174344    8.91076640388791
H        10.08024745085247    9.65114431658710   10.14607374915508
H        11.52111354714085   10.56823397714427   10.63527128988592
C         9.96647796990159   12.21859570582012    5.50154241255034
H        10.69808122489929   11.99515869551027    4.71491028099591
H         9.97003116618494   13.29195544350789    5.69993655029142
C         8.58131779573643   11.74842959061411    5.05977313704369
H         8.29389712759341   12.24181238248323    4.12133537737605
H         8.64185334926465   10.67108222461033    4.88617243410292
C         6.45194221179018   11.09266593525414    5.94902079816223
H         5.77257292722790   11.21449175557972    6.78838958813643
H         6.78458917389185   10.05741391938475    5.95125196887303
H         5.92292131765922   11.29897316308520    5.01010873041269
C         7.09885689173934   13.36738763947472    6.03069145195283
H         7.92322453302198   14.06867793163517    6.11633029304671
H         6.40846071716207   13.55089441454799    6.84999075143590
H         6.57832010431695   13.53488878531168    5.07873055311027
N         8.41427573783114    9.66018230873406    7.97443261122291
N         6.89222545213382   13.95424538129747    9.76699637884258
N         9.93702796739907   11.70687415057283    9.81520298962928
N         7.59343482459943   11.99270568783573    6.11385047964237
O        10.02631753109653    8.98225575377075    6.52631664664909
O         5.95293398158450    9.18786162343450    8.57090757686473
O         7.61359540972126    9.36980157357346   10.37016515765528
O         6.83484545032750   11.84249702626139    8.95062719559168
O         5.78367138044136   15.94346608100890   10.93325400521429
O         7.72681267511775   14.84436556974932   11.93493473091287
O         9.00446702236997   13.78964135562718    8.24973892554380
O        10.34413309744936   11.59101218346682    6.70519077491598
S         7.30207542248532    9.00767871644981    9.01602142118274
S         6.50775938422486   14.73013756097240   11.17199443040577
Zn        8.55535105376964   11.62074776802095    8.09062988055645
H         8.13787297866802   14.00941439408584    8.69442658337815
H        10.36202345715206   10.60837570710413    6.53338142087520

