39
CSD_code = TEQLUW | q = 0 | S = 0 | Stoichiometry = C16H19NNiS2 | MND = 4
Ni        5.39433229039142    1.22426257808220    2.21223181384301
S         7.25036271711890    2.09203507590841    1.17605323880734
S         6.62489164726989    0.55655083713361    3.79091992229826
N         4.19255837270621    2.22299023517039    1.11617900722910
C         3.78265816226844    1.87844178606410   -0.10477102371849
C         3.25416070782276    2.78886764840938   -1.00261890076581
C         3.14284236675696    4.11753184186584   -0.62667393588003
C         3.55983810752544    4.47678452362641    0.64597738028631
C         4.07329467178945    3.50363205088434    1.48256719064936
C         8.16009868370875    0.22840432355619    2.95640119501444
C         9.08438560058431   -0.66647818080135    3.46252407787940
C        10.30290939266842   -0.81855422279579    2.82529232727874
C        10.59886564339649   -0.04211158389157    1.71111026217139
C         9.68479967643358    0.86426248870658    1.21955677163207
C         8.43294649716248    1.00637530853801    1.82514510022693
C         5.93507758011937   -1.10600697053636    4.14092475809196
C         4.42051277775502   -0.97236672431672    3.97165793332514
C         4.16194975638410   -0.24312932852352    2.64397301671872
C         3.84429842390048   -0.16060153401025    5.13449317432872
C         3.77655430585518   -2.36531437606578    3.95122125264499
H         3.88637664255714    0.83511962360606   -0.37304059416552
H         2.94111889357892    2.45981751563658   -1.98094037881817
H         2.74273686252254    4.85444885293153   -1.30644392604667
H         3.49335326396791    5.49840585277555    0.98532852312448
H         4.40611200629927    3.75579870858513    2.48490353953390
H         8.84787607544418   -1.24532903184167    4.34379319524739
H        11.02250023361339   -1.52943331193120    3.20186825029458
H        11.55624377246237   -0.15131857593377    1.22250237090928
H         9.90955424482240    1.46722476180633    0.35269045376193
H         6.22388191124992   -1.40068774623776    5.15042368156362
H         6.36084827121759   -1.79738810635121    3.41454927318636
H         4.46421991096025   -0.90722223768638    1.80459960994021
H         3.09016533619635   -0.02898805339716    2.54910736633818
H         2.76416427847078   -0.08356287744563    5.03962845357311
H         4.25918411363618    0.84672464552440    5.12761469322735
H         4.07535384848138   -0.62981014124983    6.08881414530318
H         4.18523261067135   -2.96938595961956    3.14392443339873
H         2.70255596970844   -2.27884540706828    3.80588823665096
H         3.95518437252328   -2.88184428910623    4.89222411091539

