108
CSD_code = TEQMIL | q = 1 | S = 0 | Stoichiometry = C52H50ClOsP4(1+) | MND = 7
Os        3.60174262865393    3.30506954460994    0.75388926524258
Cl        5.67123068414940    2.29761917620665    0.23541132252536
P         2.78867468034495    1.10185562174673    0.38050956454837
P         4.65113242473716    2.98804643642947    2.85916938386699
P         5.12346241712531    5.13505837031231    0.56239483871432
P         2.71365195132512    3.51576222909990   -1.42814942726435
C         1.17647783721904    1.30581471728017   -0.51701926618672
H         0.42540392222471    1.40305706904073    0.27442933133798
H         0.96435870861805    0.37391939873061   -1.04971126568346
C         6.20481272521005    3.99914203735883    2.86188694546398
H         6.97672820231645    3.47971375622007    2.29002255888609
H         6.54677840873916    4.11660371634717    3.89508925756124
C         5.88092145967438    5.34816115412496    2.23345966421663
H         5.12555384240111    5.86362355962701    2.84026552459874
H         6.75649413435253    6.00051837742230    2.15414619267175
C         1.12950526938993    2.52606232232064   -1.44333066253770
H         0.92846276057279    2.22592758778726   -2.47494620422923
H         0.32954198028332    3.20452179195852   -1.13417637659074
C         3.76191872241488   -0.03275468905858   -0.64345390012136
C         3.51138972160515   -0.23353553461710   -1.99533376842952
H         2.68733289406147    0.26403270525885   -2.48596266345177
C         4.32900772174539   -1.07717345356827   -2.72747937179887
H         4.12909748109894   -1.23213489002060   -3.77719198159781
C         5.39995386805716   -1.71126420227185   -2.12171363991408
H         6.03661560503838   -2.36429849574437   -2.69888593110090
C         5.65743040577892   -1.50652659547528   -0.77435254007352
H         6.49392002244506   -1.99758966043349   -0.30047740454470
C         4.84624838709569   -0.66756498874944   -0.03680988212041
H         5.04256360673693   -0.49790550311561    1.01438106420059
C         2.20308165209393    0.05156739449797    1.74975379274664
C         2.30668056208817   -1.33498405656938    1.72850864308883
H         2.80342281158012   -1.83385629193551    0.90946430622883
C         1.76668816396513   -2.08243363912474    2.76020977819020
H         1.85436261110241   -3.15814327688712    2.73957033673592
C         1.10918738152265   -1.45995594794130    3.80795490486152
H         0.68568639332575   -2.04919719779783    4.60686763747857
C         0.99309095163541   -0.07943498396316    3.82740979393162
H         0.47943720824020    0.41113702340926    4.64099191808335
C         1.54322477629283    0.67260896725083    2.80681112460558
H         1.47198364428883    1.75383945878348    2.83023193654505
C         5.19164760172500    1.33872052617619    3.40083755254184
C         6.38051309530074    0.75473530767585    2.97263842433964
H         7.06095696298676    1.29004746899909    2.32826876571510
C         6.69871529810828   -0.53470070382804    3.36243195704978
H         7.62535480784635   -0.97713911750170    3.02822891953669
C         5.83565916700270   -1.25643069194032    4.16957697654409
H         6.08535128042370   -2.26455746002658    4.46291925854367
C         4.65480715213980   -0.67731642840773    4.60559629331243
H         3.98058358853229   -1.22944296129613    5.24263563790609
C         4.33541558694115    0.61195083291497    4.22684648071709
H         3.42209791977325    1.06797047880514    4.58029890644810
C         3.87859522966531    3.63208463604638    4.38264424334484
C         4.52843254123357    3.46126316650045    5.60423732400705
H         5.46061715714835    2.91320799351309    5.64681112968528
C         3.97570347092143    3.97241198193120    6.76212943509002
H         4.48305085374109    3.83461546605474    7.70502290199572
C         2.77152063157639    4.65883392158613    6.71476603857590
H         2.34217460796250    5.05647518340927    7.62148665758975
C         2.12015754394114    4.82914699955290    5.50552310345285
H         1.18080618496580    5.36019647462217    5.46681999523188
C         2.67091203821264    4.31678830195896    4.34290299041358
H         2.16132038095109    4.44461689868621    3.39687235308323
C         6.50221667973705    5.02581562569440   -0.61336561493771
C         6.13963688176440    4.97195352385741   -1.95686368819925
H         5.08645784420037    5.01641743062836   -2.20903211849842
C         7.10174582872166    4.86038421259391   -2.94019586973869
H         6.81001211691438    4.81571408823077   -3.97909836064248
C         8.44023991211984    4.79792903617336   -2.58447939163064
H         9.19801032707472    4.70711526373924   -3.34747374925494
C         8.80542948880643    4.84613472843724   -1.24964153659007
H         9.84787628478992    4.79209268369735   -0.97368011161359
C         7.84361714141606    4.95622741047576   -0.25968755362015
H         8.15060392233440    4.98166360387202    0.77521132926228
C         4.49473297807455    6.82921074550329    0.28803370381410
C         4.99894709710461    7.67195166151501   -0.69607904623955
H         5.79543321167593    7.34056683634782   -1.34548982758533
C         4.48835031833884    8.94977876010427   -0.84497192872501
H         4.88833241015036    9.59525446527358   -1.61221569705460
C         3.47862795215346    9.40208466332026   -0.01443790498654
H         3.08623220467625   10.40032194511415   -0.13252685932668
C         2.97615260368055    8.57013443314362    0.97306661062482
H         2.19301699753873    8.91886659582746    1.62916822191704
C         3.47707518672811    7.29199210558565    1.11941263154843
H         3.07322783482021    6.64430115266805    1.88769685810333
C         3.45645122644762    2.95458247969476   -2.99934696729955
C         4.71499372168500    2.37016777133030   -3.05808734786461
H         5.30635232416702    2.25629080433566   -2.16371456070103
C         5.22057492797534    1.92780606809421   -4.26874590956370
H         6.19908929109428    1.47288217142414   -4.30027881403761
C         4.47574761167776    2.06553149258091   -5.42615400203105
H         4.86980360207593    1.72057510334317   -6.37000786292305
C         3.21929281519153    2.65178749053165   -5.37450921347545
H         2.63700911241211    2.76572821451815   -6.27665152364080
C         2.70863104555366    3.09371056131240   -4.16993304296505
H         1.73261275507420    3.56072580085732   -4.13689721109415
C         2.12718073418834    5.19517666056409   -1.82676353506646
C         1.19977049726600    5.77484777386511   -0.96275347470609
H         0.81708637393204    5.20234776924608   -0.12738040114142
C         0.77529220049722    7.07373646606865   -1.16058174161658
H         0.04752973221971    7.50947510590531   -0.49297105223607
C         1.28705549563132    7.81835404374625   -2.21118191465814
H         0.95900060995159    8.83475521795814   -2.36418575113754
C         2.22166526411270    7.25597196823892   -3.06231671030186
H         2.62605932595815    7.83301321223421   -3.88009225726521
C         2.64370637068739    5.95176455335959   -2.87339323875368
H         3.36504420050707    5.52455505653420   -3.55594842445177
H         2.14129878130009    3.15683367918167    1.31170735812312
H         2.87282502693292    4.62238227935657    1.15550735649379

