43
CSD_code = TEQMAD | q = 0 | S = 0 | Stoichiometry = C15H23NiOPS2 | MND = 4
Ni       -3.31128426692293    0.87363090718853    3.49768514587695
S        -1.45122050491537    0.33789842687031    4.69159693166619
S        -3.13140435150976    3.13770452670710    4.10940706766851
P        -2.86511326433093   -0.06370082527705    1.57855744598354
C        -1.22236245292020   -0.84419650599890    1.38521786984616
C        -2.85667415869807    1.17864339292238    0.23375131739893
C        -3.97163723485944   -1.34153510562882    0.87291129524087
C        -1.52257869251501    3.09956836441569    4.89865861398140
C        -0.98017237528900    4.31753575728175    5.27318477589169
C         0.23643876283833    4.36573517517956    5.92461791442039
C         0.90752589510369    3.17851143966126    6.19724883630775
C         0.37387005104264    1.96999470671225    5.81697926521527
C        -0.85595276392606    1.89346649110453    5.14627933341727
C        -5.01075168492743    1.20814149712170    3.12856153201556
O        -5.70749296660678    1.49686600516307    2.20745604453706
C        -5.36697597638198    0.98222464510585    4.59203063902837
C        -5.52440725777555    2.30840942467408    5.37423116975275
C        -4.14827522901673    2.92409782169496    5.63639889793173
C        -6.16477744150405    1.98993446972923    6.73056351890057
C        -6.40551370739820    3.29257084539424    4.60388411660240
H        -1.52413733882846    5.22325697935195    5.04735705400796
H         0.65865000891136    5.31508912160915    6.21642991085737
H         1.85986470739274    3.20433859243249    6.70712097075942
H         0.89441595382718    1.04593738340990    6.01963943346674
H        -6.29424167373238    0.40697702292209    4.63284209036655
H        -4.55766164959837    0.37416119386294    5.07953030569799
H        -3.56201818944953    2.29174031010863    6.30636480657249
H        -4.25215704345603    3.91435565302481    6.08134749263815
H        -7.17669766294763    1.61612705887321    6.59317724325871
H        -5.58826691847401    1.23967560721297    7.26781368644231
H        -6.21358754288570    2.88676824792945    7.34376232747203
H        -6.62711265671547    4.15869298914261    5.22317466256212
H        -5.90509226836386    3.63573427810961    3.70114702561168
H        -7.34365366820764    2.82333873898777    4.31746720088757
H        -1.08505965960512   -1.19442424893357    0.36284108518114
H        -0.45523062720937   -0.11412115361869    1.63734127440951
H        -1.13920892666839   -1.67674689254078    2.08106587743224
H        -3.84265136141694    1.63538039067787    0.17245349116229
H        -2.60422909373641    0.70735023037604   -0.71489531589703
H        -2.12722777198631    1.95211428579588    0.46893977393682
H        -3.61598306027919   -1.63824144443377   -0.11246485205142
H        -3.99171814896012   -2.20922064929018    1.52927028069756
H        -4.97793578708564   -0.93618515499635    0.79185244282431

