118
CSD_code = TEQMUA | q = 0 | S = 0 | Stoichiometry = C54H61NOTi | MND = 12
Ti        0.72285706495893    5.65052735121329    3.19572941972942
O        -0.36937092574146    5.65924608654680    4.48012655972312
N         1.82293003120998    7.14133589506426    3.66549238907095
C         0.92479810769907    3.28480990350404    3.84805183855617
C         2.07787347469748    3.98434169638354    4.26943291648856
H         2.46730610288581    4.03503645185710    5.27882365632913
C         2.77039167036027    4.45162446570914    3.12468691634746
H         3.76118734664275    4.89250585142649    3.12484347198076
C         2.03004386523855    4.07266367682732    1.99543065030481
H         2.35126479083681    4.14918079220105    0.96382671928534
C         0.87993735843672    3.38121758449875    2.44050175346193
H         0.17698263749448    2.88607019914023    1.78426095686449
C        -0.05590984857427    2.58000104965783    4.75698081985461
H        -0.64216588820095    3.35248167673015    5.27806321089564
C        -1.04348855604751    1.66879096692831    4.01267253913111
H        -1.54855219130134    2.24412771228800    3.22649055954125
C        -2.09215836828504    1.16072665155727    5.00419879987510
H        -2.62702246724907    2.00418570160744    5.44974608761812
H        -2.82376494812129    0.53818022385938    4.48263539847885
C        -1.40912567763473    0.34691017463693    6.10223466669373
H        -2.16336596531941   -0.01257356656271    6.81209122750979
C        -0.39984759737677    1.22959868128249    6.83250918815628
H         0.09109963852000    0.65490324817657    7.62195937771733
H        -0.91082768917948    2.07443818521597    7.30098818825494
C         0.64420706026205    1.73997108104033    5.83963346576981
H         1.36531181402011    2.36366986743560    6.37629790407689
C        -0.32432415357500    0.47027344485975    3.39182529750623
H         0.42350497353143    0.80480412974089    2.67198899088449
H        -1.04714385284340   -0.15643390966801    2.86269395903606
C        -0.68122940123895   -0.84506450133950    5.48276135485000
H        -1.39583248735227   -1.49471273410199    4.97145774345651
H        -0.19701929192742   -1.43261712679351    6.26645952160657
C         1.37233904379601    0.55756297765813    5.20400058785001
H         1.89697703140542   -0.01200176746214    5.97514273885371
H         2.11358360746102    0.92442161757791    4.49023761146362
C         0.36275941755260   -0.33840350841727    4.48909485717579
H         0.88417505407298   -1.19224783505554    4.04103575967729
C        -0.05141072352851    7.81734502586241    1.11031558105824
C        -0.78115476129867    7.05966969375401    2.04161145920263
H        -1.46975608389973    7.46549976571194    2.77036235513126
C        -0.82748414556039    5.69744920414981    1.58181042575296
H        -1.59960456133033    4.98718253034845    1.87261356616723
C        -0.12932952619096    5.67092448011200    0.35067113559675
H        -0.01548048171702    4.80898577695756   -0.29084333147523
C         0.35631334824180    6.94209063154310    0.08527138752128
H         0.94883717621220    7.20530798275237   -0.77402330185199
C         0.25356280751056    9.28563717853888    1.25377104429287
H         1.02604938552080    9.38795103302607    2.03050805015414
C         0.79879660111456    9.92596655397680   -0.02922703448962
H         1.66776081495991    9.35587735125691   -0.37268353675124
C         1.23986625508931   11.35798204221852    0.27238185212500
H         2.02120060304425   11.34940960901912    1.03672932142986
H         1.65839765686480   11.81394248522345   -0.62833264556428
C         0.04086940045186   12.17198554555492    0.75568157896209
H         0.35833542522888   13.19878072946793    0.97357102410041
C        -0.52796828752904   11.53380811472683    2.02088026020854
H        -1.38237250132616   12.11511027618798    2.37776616383207
H         0.22927022374108   11.53117840601908    2.80925518717860
C        -0.96574318005197   10.10135920596922    1.71776060330423
H        -1.37887247618167    9.65813228739601    2.63031772453100
C        -0.27504911357252    9.94740272603953   -1.11647972244050
H         0.13272160880710   10.39185619669867   -2.02813623320101
H        -0.59382503095678    8.93020127015145   -1.34672894975097
C        -1.03668236143680   12.19035676128533   -0.32767056230859
H        -1.89339684762501   12.77892716724013    0.01028909109341
H        -0.64541808558169   12.65943450583640   -1.23370990819454
C        -2.03699005694794   10.10799565923724    0.63014600785093
H        -2.34257693972008    9.08157633551844    0.41558074719970
H        -2.91499833218143   10.65952701650684    0.97652946428566
C        -1.47460193561075   10.75833504724867   -0.63233984908815
H        -2.24587300412779   10.77155150021036   -1.41159171663078
C         2.76759579517824    7.76123033575793    2.87182526150958
C         3.46749506557538    8.89311390162772    3.32550431211418
H         3.25610535421788    9.28313279979374    4.31170179749957
C         4.38078336624558    9.53587416370896    2.51503228555422
H         4.89822934740265   10.40854099778817    2.88782768260306
C         4.62823783149712    9.08116271714699    1.23020084127892
H         5.33856172250239    9.59042318785893    0.59709897609755
C         3.94440442580034    7.96868933273455    0.76683841271439
H         4.12894852534345    7.60326454278707   -0.23375683637775
C         3.03227134832226    7.31295213079856    1.56930455404287
H         2.50079728289490    6.45095962078283    1.18702299473497
C         2.00839152289073    7.28812043661644    5.03196546691957
H         3.04566098112395    7.20478821117138    5.37719075714659
C         1.05589447514028    7.57171407624925    5.93011532750928
H         1.30990986210428    7.60735613951533    6.97975546580115
C        -0.37344173902445    7.78514228788071    5.56102813301387
H        -0.41672831309437    8.31662254791836    4.60358221875925
H        -0.88139538385505    8.35546715610661    6.33953340700725
C        -1.10509834460978    6.41329687561969    5.37258114062635
C        -1.17269522661666    5.73148442442246    6.73936108628741
C        -0.06559817627362    5.03478378127491    7.20379740790662
H         0.81446302143694    4.98259362442098    6.57832384155297
C        -0.08664006709700    4.41900345359899    8.44185433776539
H         0.78509708785745    3.87918741607875    8.78386243064457
C        -1.21376510495592    4.48379151771777    9.24923203683667
C        -2.31545272077724    5.19298352003991    8.78501141675375
H        -3.20106861998666    5.25885688455255    9.40098452402752
C        -2.29846620850875    5.81197580118845    7.54894155597672
H        -3.16929163257291    6.35547954637961    7.21279510705833
C        -1.25297716444902    3.81315409989092   10.58857906101274
H        -1.36748777697237    4.55374128775100   11.37948467983786
H        -0.34019684501281    3.25141946644218   10.76951939660369
H        -2.10003019605882    3.13112743327746   10.64774603964903
C        -2.51686417398094    6.57037247468513    4.81416985831453
C        -3.12343663614728    5.43077699221880    4.29309654296238
H        -2.58056498997125    4.49449185969631    4.31249725668578
C        -4.39589603434072    5.48541992463876    3.75959624267902
H        -4.84721171605953    4.58851773060080    3.35951835492245
C        -5.10549080366746    6.68001144588197    3.73397015584989
C        -4.50341956088822    7.81225825651258    4.26515967751832
H        -5.03850871557026    8.75120895394685    4.25993800976212
C        -3.22788791242768    7.76329818618580    4.80099552176810
H        -2.79770510690423    8.66649352787337    5.20591390175555
C        -6.47401242553727    6.74786780522944    3.12916849008858
H        -6.39648528631617    6.96520074433247    2.06336950931340
H        -7.06517702207403    7.53526842835901    3.59077386355977
H        -6.99572676334760    5.80028745997522    3.24182315105252

