104
CSD_code = TEQNEL | q = 0 | S = 0 | Stoichiometry = C51H50N2Ti | MND = 12
Ti       11.09640977980127   10.99079431573080   10.89867606505822
N        11.84576865480025    9.23513232472054   10.81035305275445
N         9.47550591415036   10.50948872163998   11.59125039504010
C        11.59821941985429   11.45394319640658   13.19789788069420
C        11.34482494555529   12.62403972708560   12.41093837048576
H        10.50410307457720   13.29320402407390   12.54333051566543
C        12.53567833869206   12.93878152933884   11.72003617926203
H        12.71005313980033   13.83394796330412   11.13800245065230
C        13.50384656955977   11.99122220260697   12.06376032376057
H        14.53761552241587   12.00007863211605   11.75444944123348
C        12.94122920229071   11.08615605537682   12.97211114191813
H        13.47602971502525   10.28502282149250   13.45980315375624
C        10.71216252494699   11.02276136836052   14.35389083264157
H         9.73100479656253   10.71520260025887   13.96357358029676
C        11.28559710446819    9.83171514466311   15.09028348512774
C        11.63982148054304    8.69894587188056   14.36405282602837
H        11.52471831582819    8.71181037407302   13.28621329194916
C        12.14951260711772    7.58168545933245   14.99740035448355
H        12.42434481575391    6.71427037500216   14.41311821911594
C        12.31613294068925    7.55770581795209   16.37661876478704
C        11.95347544845560    8.68570792945732   17.09977801635358
H        12.07124652559010    8.68784064790932   18.17445012857600
C        11.44446778296559    9.80730543272976   16.46846523049958
H        11.16960586069550   10.66944137816044   17.05820737829518
C        12.88976688450294    6.35769415148560   17.06814224884331
H        12.83120245918401    5.47707111754101   16.43293411128559
H        12.36089062193730    6.15791069490397   17.99811173420102
H        13.93830479562861    6.53253662320334   17.31162518932287
C        10.48539720072548   12.22669497535556   15.23956865734722
C        11.55715374929409   13.00415314216384   15.66597515535290
H        12.55926000235917   12.72174579756465   15.37767887919614
C        11.34650583051677   14.12812276629705   16.43881696541739
H        12.18920548582137   14.72374655631637   16.76070147217990
C        10.06098449577800   14.51342418967819   16.80716992702341
C         8.99448011967903   13.73341143118511   16.38650982326782
H         7.98626017002733   14.01187111592384   16.66227683491095
C         9.20434424056190   12.60389330520649   15.61278428595087
H         8.35715365388582   12.01198490489105   15.29342369358934
C         9.84813292800264   15.74547032014225   17.63461280509182
H        10.37099454395362   15.65904165718109   18.58650283542775
H         8.79098827279150   15.90494611925277   17.83337481217682
H        10.24159853911288   16.62152998894954   17.11958874194974
C         9.47515415247145   12.07462440887105    9.35447593323022
C         9.86748892805414   10.81040160943599    8.84590219531208
H         9.19443543181519    9.99876490075456    8.59564587932807
C        11.24664031012087   10.86661007394000    8.54704372058220
H        11.80848748479785   10.10795297280950    8.01400847664375
C        11.71187097282807   12.14716808533248    8.90387432705312
H        12.69114120826641   12.55395885169969    8.67892938472659
C        10.61666268440572   12.88997049016940    9.39287070577677
H        10.62366913593311   13.94263672673108    9.64184922840833
C         8.05263159754978   12.50052749501366    9.62639214845061
H         7.55385088684759   11.69367772176946   10.17990413374551
C         8.03067549745407   13.74542674159197   10.48975950850053
C         8.13168134951555   13.62517432233935   11.86975593996709
H         8.21101294485033   12.63957430756554   12.30831832935180
C         8.16292406431036   14.74384258350942   12.68305878090165
H         8.25625647767805   14.62308215520830   13.75375635843966
C         8.09128384089886   16.01842932217892   12.13764232113293
C         7.98556358225274   16.13806116395591   10.75717076603919
H         7.93000448153080   17.12210966702155   10.31264301926161
C         7.95730011914026   15.02029633599417    9.94286806059049
H         7.88064958200871   15.14111599121014    8.87195316161536
C         8.11516950166167   17.23464612187921   13.01325491433411
H         7.11032794436555   17.64702606227879   13.11113340877644
H         8.75107459918214   18.00678754833000   12.58405389710626
H         8.48190193768226   16.98726929424729   14.00672695843972
C         7.27964444465372   12.71952289015815    8.34254410763642
C         5.89010186408764   12.69034236819635    8.37397767151395
H         5.38420784889085   12.48990426338027    9.30845392207837
C         5.15121547363286   12.92153499593996    7.23055280115939
H         4.07125395108676   12.89576613792774    7.27482723327026
C         5.77860461226486   13.18931514224729    6.01897482724500
C         7.16533402405927   13.21781282528561    5.98971542927129
H         7.67470927327582   13.42533339201812    5.05890404678654
C         7.90778517486512   12.98833720087580    7.13506416791248
H         8.98675117414488   13.01844863888070    7.08913870827956
C         4.96695664905976   13.42686598439325    4.78126078324465
H         4.50477610379996   12.49659963859067    4.45005237186143
H         5.58900219580003   13.80609660671671    3.97423862459613
H         4.16996984802865   14.14254806469989    4.97648963368901
C        13.21556940800153    8.96494177979853   10.75912818861381
C        14.13862875626122    9.83057507881356   10.16492413723283
H        13.79392274285448   10.74559270253265    9.70026262057115
C        15.48407686392726    9.51386676550155   10.13899509777946
H        16.18237671277709   10.19540803625194    9.67328172159974
C        15.94289021985871    8.32840821271242   10.68870087028551
H        16.99564255982703    8.09028042888228   10.66849349076265
C        15.03540807608457    7.44503675281400   11.24966749137949
H        15.37884651865279    6.50974329834819   11.66776394869276
C        13.69001736784169    7.75203378985165   11.27583327628020
H        12.97935866364554    7.06172403756800   11.70983848762877
C        11.09473700145766    8.21855268219392   10.25361470403024
H        11.58254146026134    7.71409432381267    9.40982112852841
C         9.88837203016414    7.74278294000418   10.60063525954728
H         9.45960312535436    6.98931501243460    9.95352886808562
C         9.06884611797162    8.10156717063098   11.79368224221787
H         9.62174842456361    7.87604490158082   12.71376130501555
H         8.15496377597150    7.50553984114880   11.80062989512279
C         8.70498430189310    9.58789641842159   11.90384636207126
C         7.32445451721951    9.80309936139927   12.48746985128904
H         7.13508549355406   10.85558422206328   12.68357415827144
H         7.22562170888534    9.24084293702738   13.41510705999442
H         6.57453432579670    9.43555343213268   11.78779469778252

