59
CSD_code = TEQNIM | q = 0 | S = 0 | Stoichiometry = C23H33NOTi | MND = 10
Ti        3.66176482280905    9.67414195513160    4.14599872141242
O         3.88897171011918    8.22803119573099    3.16369195211862
N         2.08980752050095   10.45316598779273    3.54962941548755
C         2.86411846549457    7.43792882997074    2.72087742573583
C         3.34736120326385    6.20918939965257    1.89386357703488
C         2.06864659291647    5.77487821735048    1.17288705848887
C         1.37645365206796    7.07921233967943    0.77144521163651
C         1.74855656695619    8.11867482622894    1.84568101277639
C         2.13956236543408    9.46920948091386    1.21763793162288
C         3.89682588770569    5.12745207425574    2.82064141789180
C         4.43879804292357    6.61540459578103    0.90462543537382
C         2.67068213868731   10.40468930435488    2.28549977812516
C         3.97554682509056   10.86856653226223    2.21267764540667
C         4.66743196932280   11.41087641929619    3.36791355517957
C         6.06420932201608   11.51805077370940    3.00656231324508
C         6.28742821398135   11.03960913693880    1.77494837396422
C         5.01262148386477   10.54741196165129    1.15884417218946
C         4.26168689672018    8.16206089129546    5.82800702364050
C         3.04684582292986    8.78957427086992    6.17819500628942
C         3.32297865949916   10.16217110261334    6.40396803197752
C         4.68768589167213   10.37569100866120    6.15413357900667
C         5.26379427139833    9.14517470906984    5.77184595183944
C         0.77832044134079   11.00420099789577    3.83982108234905
C         0.05601801070583   10.11531887139490    4.86491857719034
C        -0.11575781306401   11.16257506432342    2.60069090818537
C         0.99041668643613   12.41202131145811    4.44059087225837
H         2.34170931403843    7.02356421955592    3.61656198658413
H         2.27911872504660    5.14084601768721    0.31217212942569
H         1.43657903891166    5.21390812566965    1.86395426961828
H         0.29676018541455    6.94990493891134    0.69281710294851
H         1.73731093070301    7.40604023662892   -0.20489595919379
H         0.88991639204275    8.30088730260308    2.49897966154488
H         2.92099407493510    9.31476989198188    0.47212324205125
H         1.26645185463418    9.87017869640509    0.69486046039152
H         3.13931860285064    4.80352813436429    3.53226907656277
H         4.74744159927708    5.52067953976499    3.37469337312673
H         4.22424417687883    4.26191186011494    2.24780762580916
H         4.05320796880341    7.29473630264427    0.14976504063785
H         4.83932780742785    5.73593519228788    0.40388880882799
H         5.24598323329410    7.10953757927013    1.44383214402631
H         4.20469674693620   12.18020000058694    3.99378675356057
H         6.81150179639424   11.94636366222685    3.65898616225492
H         7.23052964966435   10.98523266974281    1.25984108526634
H         5.06581292429190    9.46555682471462    0.98925588171567
H         4.80657896300195   11.03147432759400    0.19760890518672
H         4.40533006933080    7.09793965470631    5.68184665042670
H         2.12265043463514    8.27547673599725    6.41870723037808
H         2.64700556484034   10.87926423150369    6.85298577552499
H         5.22910980886759   11.29552500289136    6.33609508263822
H         6.31744546540259    8.96731848284519    5.59294081794161
H         0.02840839453478    9.08451351105147    4.51250140820653
H        -0.96471833317497   10.46293341812089    5.00990940537340
H         0.57121328246321   10.14162760547124    5.82151903748064
H         0.40354821423514   11.73142657381076    1.83252413166081
H        -1.01898228900692   11.70322885626303    2.87573584083154
H        -0.40839478108491   10.19671943126582    2.19841246583016
H         1.43512067422458   13.06522707001147    3.69121736367736
H         1.66419820133142   12.35666961708273    5.29430611462455
H         0.04420565806301   12.84049302794268    4.76379489463456

