50
CSD_code = TEQPAJ | q = 0 | S = 0 | Stoichiometry = C23H24N2Zr | MND = 13
Zr        4.70715550318695   10.66061720756698    8.85121754519176
N         3.25816837114175    9.67639765906198    9.91470564384860
N         2.66554429516606    9.97536011163693    7.08828150417687
C         5.44271875797545    9.50710132658415    6.62377248362580
H         4.91139269644341    9.51205198166450    5.68008896268139
C         5.34081544520308    8.51394432758280    7.62305350869372
H         4.70481499003543    7.63752602928638    7.58202694645560
C         6.35960991727414    8.74723222202514    8.56760042179107
H         6.62641523823636    8.09512606149863    9.38953105429295
C         7.07780838215849    9.89284451155577    8.16019962255440
H         7.98212419867984   10.26962055884333    8.62244459404613
C         6.51771502467987   10.34906417016879    6.95552837952047
H         6.92556949330959   11.12712501511803    6.32397558211539
C         3.81870470160250    8.71737666784321   10.88902092518112
H         4.19442581216935    7.83567803268945   10.31970286858840
C         5.02860168971597    9.37200292930696   11.58001239570109
H         5.60737054404505    8.68925825850082   12.20090139771496
C         5.68641011053193   10.50710518681895   10.83237960987053
H         6.76798141740867   10.59458574042456   11.02554562596283
C         4.85527045746163   10.78288771912023   12.06407227102571
H         3.87042174493591   11.23012026675568   11.95783404843096
H         5.35125642798854   11.05935720132245   12.99010767939621
C         2.83515714671374    8.23866490036055   11.93066711552425
H         3.18276753745303    7.43786119252906   12.56664672638477
C         1.63792251852858    8.80542113362055   12.08932014753588
H         0.95990876948108    8.47282957561686   12.86280617073609
C         1.21585990694642    9.84747909329265   11.19765102027735
H         0.24839908888823   10.30607556202369   11.31781231155906
C         2.03998194188621   10.20634131279628   10.17911367421414
H         1.69395161503069   10.94387365562793    9.45114465625235
C         4.61915358044316   12.76275535052015    7.46073497341452
H         4.69979505553112   12.78198191722975    6.37973541942649
C         5.68652571292375   12.97654456410966    8.35699630388255
H         6.71944283296549   13.15817670411083    8.08667672940773
C         5.15158450138966   13.09506648659239    9.65288594649611
H         5.70255664751645   13.36760368161361   10.54302188354269
C         3.75360059004210   12.95085290898844    9.56402505982729
H         3.05015556871607   13.09945622572162   10.37317675193404
C         3.42066897992259   12.74561539619698    8.20959164444876
H         2.41460554654601   12.75900999165663    7.80649219184499
C         2.36618869667604   10.58789105751595    5.94326760477510
H         2.87526595700237   11.52339808902479    5.74921605210695
C         1.46473484376947   10.09313919879112    5.01412127445685
H         1.26648338723108   10.64029192363097    4.10562120641681
C         0.82986306423670    8.89050286351242    5.27782724166642
H         0.12024583628342    8.47257166917373    4.57944686291671
C         1.13293202621271    8.24106921475305    6.46317073430329
H         0.66692277650285    7.30216086157790    6.71737787238242
C         2.04927477050214    8.81750756559370    7.32931032581238
H         2.29465588130965    8.33627471844283    8.26873902758729

