50
CSD_code = TEQPUA | q = -1 | S = 0 | Stoichiometry = C15H27FeN4O3(1-) | MND = 4
Fe        6.79228260062018    7.13055296849964    3.45736938586695
N         7.12773626399447    6.74261116913181    1.39486109341776
C         5.89442832546668    6.21474080746450    0.81978366518463
C         4.65239081801488    6.73015310981585    1.57469998938032
O         3.60888130552210    6.96100230854422    0.94839653203844
N         4.84069603752337    6.86776054721646    2.87679480653397
C         8.17552389946173    5.73947172042442    1.46057213269115
C         7.84465983628246    4.66735442945583    2.52467976859091
O         8.25890303103002    3.51182142527803    2.35986649845060
N         7.16380136940060    5.12989910558738    3.56206519188744
C         7.55928376799292    8.01403433441703    0.83799196207929
C         8.29687171740684    8.84729879800346    1.89728555076360
O         9.15925674154619    9.66461848743432    1.57730772530087
N         7.86963073402537    8.60165320464855    3.14790181403521
C         3.73112763071102    7.46677432300469    3.59910710773822
C         2.64811184325804    6.44314365238991    3.95666785510881
C         4.27319227437971    8.16961106129368    4.84279195296685
C         6.91784428208438    4.17028725518966    4.62187333289992
C         8.21560349362472    3.86993626602869    5.38335101643742
C         5.87096881260843    4.74099829660408    5.56858739827726
C         8.48260333098847    9.39324649275074    4.20377473573834
C         8.35007160348175    8.60927190669178    5.51069949611137
C         7.81316978398260   10.76664349517580    4.31104181000470
H         5.89920243741049    5.12753252136668    0.92336213191166
H         5.79416901710291    6.46298448552834   -0.24573486710644
H         9.11074657048255    6.22305208636524    1.76294772160616
H         8.34294661501326    5.24147481452486    0.49304193346135
H         6.67213268286599    8.58501941750652    0.54963191468059
H         8.20103673051026    7.89793925505444   -0.04959813263491
H         3.26154772158891    8.21543293842155    2.93960920161287
H         2.28906563635167    5.98211050215942    3.04073102386611
H         1.81393222786061    6.93163970165840    4.45919436449535
H         3.04743266397322    5.66868266625609    4.60688218674016
H         5.06043327736606    8.86216286179493    4.54187499764860
H         4.69445640308870    7.43403048067947    5.52435664258748
H         3.48516999397404    8.72164348938854    5.35211812918663
H         6.55190288773246    3.22686705883925    4.18571800068161
H         8.93645536511968    3.43420709244728    4.69758868670073
H         8.03144886075702    3.17162158063107    6.19859698869658
H         8.62523109645016    4.79394902278196    5.78874515521620
H         4.98035049320892    4.98421226469754    5.00022242747294
H         6.25985252322099    5.65670135695681    6.01411653860892
H         5.62606877371582    4.03025316311836    6.35613806385589
H         9.54719353709426    9.54684604535249    3.96479817424442
H         8.83055352790988    7.63647518653306    5.40447054253777
H         7.29187318171837    8.44925663569877    5.73135989753215
H         8.80973357798984    9.14846548190703    6.33640175826189
H         7.94581831931912   11.30399505641339    3.37544507276915
H         8.25472450665887   11.34830631035539    5.11851573295644
H         6.74748186810711   10.64615335851392    4.49809489090421

