56
CSD_code = TEQPUD | q = 0 | S = 0 | Stoichiometry = C24H25CuIN2PS2 | MND = 3
Cu        8.86791535124389    0.11892850888920    7.67739829409854
I        11.07671637074204   -0.78850226195472    8.41046522507184
S         7.00486249620974   -1.49362541561954    8.96834861861283
S         6.73440615654089   -3.81474956755648   10.89961883376461
P         7.34165220487588    1.42022381393414    6.67014463487412
C         7.65195167846239   -2.65088973117725    9.93485916744610
C         8.28017628610726   -4.47715625648476   11.45599046542192
C         8.34522443764896   -5.61294489254670   12.39692285890566
C         5.72369081161453    1.31737773618970    7.49762564818204
C         5.65566073274137    1.56501919600171    8.87706471543688
C         4.43909235239318    1.39236406373467    9.52111535343671
C         3.31400381768816    0.97635529504211    8.83140789897146
C         3.38957239093154    0.72616818765685    7.47239305960507
C         4.59112384948414    0.89185080167246    6.80991516013971
C         6.85767617755870    2.01724691475262    9.64329283586028
C         7.67595639206930    3.21464182340107    6.63318822484450
C         8.94852259792541    3.65130486914272    6.24356653881812
C         9.21255595637048    5.01384820251561    6.24257190701840
C         8.24437108173058    5.93108210723863    6.61234737339339
C         6.98447683271117    5.49464893715956    6.98518597209540
C         6.70298149621811    4.14124892823836    6.99734233787472
C         9.99924966105477    2.66995331380708    5.83280542352527
C         6.94669932565511    1.08976089822214    4.91660445078739
C         6.94419808355615   -0.23359296737398    4.45456986846512
C         6.67387498353920   -0.47056298160714    3.11395895513664
C         6.41194465719122    0.57060091118871    2.24081339167815
C         6.41657140477464    1.87573027820233    2.70183005443906
C         6.68651291139836    2.13350424331315    4.03279203123603
C         7.22410044015254   -1.36954564722532    5.38458617123328
N         8.95863622202912   -2.88852860403202   10.13818780589813
N         9.29045657565955   -3.87894517572062   10.96299144799284
H         4.37655651931105    1.57809118841448   10.58413251817270
H         2.38023262162910    0.84126289481163    9.35692440814902
H         2.51716853767475    0.39528059910058    6.92856727698182
H         4.65135319582120    0.68934567204648    5.74940024891580
H         6.69281198953739    1.92162992468127   10.71404194559358
H         7.73154669092501    1.41612138311072    9.37390303953858
H         7.09256472267980    3.05922310291969    9.41998335782529
H        10.19225623819135    5.36008697854447    5.94607335341967
H         8.47179047328443    6.98664215813112    6.60475745557354
H         6.22098534901911    6.20532891734652    7.26510970469552
H         5.71726000180381    3.79886787638426    7.28214600723503
H        10.85709109309981    3.17549853972758    5.39637112139355
H        10.34521396515257    2.10188240380075    6.69894750258718
H         9.60319399328217    1.96175206512944    5.10253037492428
H         6.69154761867882    3.15350777104488    4.38936081208415
H         6.21076336939734    2.69364156340716    2.02761608176331
H         6.20435914545482    0.36242948195597    1.20178928366099
H         6.66931721277161   -1.48817785986775    2.75004254537051
H         7.08397985228415   -2.32698240019849    4.88814743481695
H         8.25651797266089   -1.32086667955208    5.74284082849655
H         6.56658120536294   -1.32991356548865    6.25488782790597
H         9.70848495820477   -2.33967093918114    9.68545401650385
H         7.86815127178625   -6.49013538214779   11.96199678615011
H         7.82323171400482   -5.36832744754341   13.32075038319857
H         9.38620655171117   -5.83533377558193   12.61352096077313

