63
CSD_code = TEQQOW | q = 0 | S = 0 | Stoichiometry = C28H24AgN7O3 | MND = 4
Ag        1.78385925064944    3.69398745122969    3.41114098703859
C         3.32651966368811   -0.86888629142759    3.78440128521720
C         2.07266040839959   -0.28070345074366    3.80573158389428
H         1.98586864384369    0.76995276751469    3.57826853132342
C         0.93746620915087   -1.00837231966276    4.11334242792305
C         1.06386880244722   -2.36252948283818    4.39616212471677
H         0.18707909238307   -2.94530829197138    4.63843741582304
C         2.31086034439740   -2.96134823376734    4.37522983607810
H         2.40379057398586   -4.01382186658346    4.59850845078874
C         3.44166113857845   -2.22054292306534    4.07525103615527
H         4.41239276340043   -2.69474375705191    4.06328551243044
N         4.31748761944428    1.38575368814771    3.62203179844912
C         4.52857162410729   -0.03819007541640    3.41400282134943
H         5.41676696394473   -0.36472830542495    3.96303943471355
H         4.72288063792140   -0.16715666955322    2.34529276250408
N        -0.39536425947089    1.03453798842374    3.68457824385800
C        -0.40904834388346   -0.33087652638156    4.18122397177746
H        -1.16355153098288   -0.91155152058473    3.64349786624260
H        -0.71252518747721   -0.27797636093682    5.23049686867552
N         3.38828227715123    2.99411325013466    5.02411964125653
C         4.04943917094634    1.83801287830328    4.89969054145219
C         4.45013968274151    1.11449781328204    6.03250705917833
H         4.94344333160018    0.16230960054441    5.94371330938800
C         4.21050165044491    1.64531175418432    7.28172218324093
H         4.52139659056924    1.10452744352655    8.16348626105213
C         3.58378404604375    2.88014643791956    7.39459552877686
H         3.40695873037430    3.33461140112283    8.35535193888816
C         3.18348338829188    3.50752246621651    6.23222815355706
H         2.69134810701244    4.47082932990118    6.23768128369425
N         3.69199687667928    1.46521683094375    1.40321116828213
C         4.04955328247367    2.15184955780612    2.48606380907830
C         4.25630004793472    3.54382073447827    2.44484546537313
H         4.67660048620088    4.06893163956863    3.28964729004432
C         4.07172412664706    4.19728786460698    1.23473467325357
H         4.26331196914250    5.25689864889991    1.16010300032834
C         3.67324190468954    3.47287759759704    0.11902396246928
H         3.51987033188497    3.95369964553336   -0.83300263193310
C         3.50780683149361    2.10726109402695    0.26243581256725
H         3.22786566945218    1.47713613665045   -0.57197362273693
N         0.32290275065616    2.45376780253067    1.98650316425993
C        -0.17776039845558    1.26388548644088    2.33871358294112
C        -0.46575522239568    0.29288853932014    1.36838989963338
H        -0.82810709627867   -0.68331695922465    1.64019186919683
C        -0.28571587138425    0.60465723101759    0.03773893636716
H        -0.51155664620763   -0.13052478360369   -0.72067557066462
C         0.17181781977003    1.86759513838289   -0.31637214386266
H         0.29772124902334    2.15093330950801   -1.34817356590413
C         0.47076156387599    2.75193151796919    0.70041047779033
H         0.82963268545296    3.75363349503276    0.50588207105375
N         0.20754396908202    1.61827290688018    5.83130788286691
C        -0.23462179078286    2.03393358745245    4.64687425515369
C        -0.62986290474230    3.36762475688740    4.42932693885828
H        -1.11566908239789    3.66118924747019    3.51048126449299
C        -0.54402048370676    4.25656769670631    5.49176994279851
H        -0.87926183075069    5.27536031756326    5.37005321298050
C        -0.05843201962224    3.81554405704402    6.71573260419451
H         0.01939746414782    4.48272194954157    7.55839943567073
C         0.29401905425497    2.48263608864542    6.82760873508877
H         0.65125868269994    2.06485990421821    7.76007971581482
N         1.58708436524099    6.47597895615650    3.08426473800591
O         1.50894313200410    5.70733755189507    2.10792413384438
O         1.74863628725046    5.97079021605497    4.21036911747044
O         1.50885140696645    7.67117404094673    2.94319151578353

