48
CSD_code = TEQYOF | q = 0 | S = 0 | Stoichiometry = C22H19AuCl3N3 | MND = 4
Au        0.11408598087040    4.36215702360358    3.29418836403598
Cl       -0.29879438645124    5.84165739817163    4.93772637691534
Cl        2.11462577632535    3.70521675033823    4.19336667849837
Cl       -1.80637588831895    4.88871056731321    2.18201836066539
C         0.85163826307399    1.09914962558471    0.82063618907512
C         0.97276549893085   -0.23054641726905    0.44098999149550
H         0.70293662536639   -1.03453596822406    1.10600010008630
C         1.46020906690177   -0.47633835975619   -0.82676924149101
H         1.57214090616372   -1.49573149592845   -1.16110498387750
C         1.81495362031515    0.56175176657368   -1.69058061770788
H         2.19243881220879    0.31929142627819   -2.67156221100071
C         1.69705527683804    1.88656505760449   -1.32139657674977
H         1.97335307751310    2.68125972975725   -1.99528593338042
C         1.20797963417614    2.14436693376457   -0.04805079670733
N         0.96264133443674    3.31509831148253    0.63786949876129
C         0.49880586768201    3.02070832396202    1.85838005830842
N         0.41587224122533    1.69346684114545    1.98573933644724
C         1.23941358472969    4.63947443500541    0.15491343721531
H         0.50834511197183    5.33102457643194    0.58242550992434
H         1.13208787090958    4.65001524034631   -0.93201240070504
C         2.66387253614953    5.09227781589720    0.55084659693874
H         2.79598205228356    4.96170052144106    1.62967705989915
H         3.40730823189869    4.47391694365746    0.03958532642291
N         2.86558971940729    6.46245097200284    0.20721874155647
C         2.44544492529762    7.53727399341822    0.96700527845482
C         1.87935841937139    7.55723280326071    2.23166534065931
H         1.69206239579469    6.64834880531775    2.78714263556986
C         1.55192315079133    8.78419779626716    2.77533464277343
H         1.10304670230313    8.81776487399636    3.75615409438611
C         1.78453963701881    9.96864592069574    2.08008046764412
H         1.51519816581822   10.90889983154571    2.53730656280858
C         2.34904831909334    9.95619228501851    0.82008071887429
H         2.52741221624800   10.87495884134579    0.28190723834961
C         2.68125024925687    8.73272008268822    0.25223182422750
C         3.24739798161354    8.34732363924411   -1.01139282776372
C         3.67466589546008    9.05841281651822   -2.12420307761144
H         3.62128030592209   10.13632084157032   -2.13724472536040
C         4.16586732743551    8.35930416477526   -3.20942353743499
H         4.50224487794165    8.89394949933284   -4.08503958843812
C         4.23461693305118    6.96900420446620   -3.19438162572906
H         4.62164055328332    6.44920423095239   -4.05859405886376
C         3.81694756137037    6.23896067784685   -2.09704299942959
H         3.88186704917733    5.16009800228171   -2.10137439529162
C         3.32537109037865    6.93473392660742   -1.00287711870782
C        -0.02121216276788    0.97284900642455    3.14868108522998
H        -0.44329792260402    1.66884847569660    3.87108892960133
H         0.82521163727500    0.45974940018768    3.60890627706347
H        -0.78011612316651    0.24239786136765    2.86646999438005

