50
CSD_code = TERCIE | q = 0 | S = 0 | Stoichiometry = C15H29Cl2N3Pd | MND = 4
C         0.10897282682628    8.10096486134042   14.91233673025717
C         1.11090187640894    7.59266967378593   14.06954704521684
H         1.22265822963468    6.57964432160767   13.74265027101403
C         1.92142911640336    8.66109256454857   13.74694510883112
C        -1.01237155091699    7.40666930168077   15.59203404453370
H        -1.40081141850799    8.05285262786026   16.38616724176943
H        -0.68312214082911    6.45724916770563   16.00864123149878
H        -1.82024688758215    7.21785550831034   14.88679667237404
C         3.13288882521206    8.72254629515617   12.89006496614640
H         2.97949526973821    9.39979261528273   12.05004717333482
H         3.34622379416396    7.73263329968807   12.49797121552036
H         3.99949594528808    9.06579322826532   13.45514093077552
C         1.89971613654500   11.08928519847674   14.45791862648756
H         1.06334510238702   11.78830391645934   14.27023468599799
H         2.66796524342573   11.23132324623693   13.69690293956968
C         2.47408092156567   11.35840059595034   15.86524556686734
H         3.13859661557981   10.52914687811469   16.13032640201826
H         3.06589531948734   12.28077676986364   15.83292314571758
C         1.68790237408129   10.84473444086003   18.15673287811023
H         1.97931178783376    9.79828673434027   18.01117803040975
H         0.75456148268735   10.86746898595055   18.73382799077155
C         2.77319975230912   11.59449022639910   18.93428512474322
H         2.49226870736729   12.64817694555138   19.00373343283387
H         3.72775532049461   11.53407314046013   18.40486599988718
C         2.93986532747282   11.02925742958306   20.34270831395242
H         1.98387567202631   11.08972671697762   20.86624116647227
H         3.21784678352498    9.97431653510611   20.28188943393729
C         3.99820303069659   11.78752479331055   21.14016504147309
H         3.72778217953045   12.84503687185266   21.18069862452342
H         4.96213980915236   11.71228415296723   20.63054927053443
C         4.13526286326745   11.25056550015134   22.56261098654756
H         3.16903209212185   11.32072296775282   23.06711975196369
H         4.41196266475681   10.19412558930364   22.52636421399195
C         5.17995559994154   12.02005531902426   23.36683791368673
H         6.14928268581877   11.94422069166294   22.86788490332008
H         4.90552532145234   13.07721530550914   23.39495631142671
C         5.30683849089351   11.49672824115568   24.79539732705329
H         4.33704313749739   11.57006197035573   25.29260755805263
H         5.58554608237910   10.44070209104804   24.76951625941440
C         6.34481210605114   12.27555488902721   25.59389241113657
H         7.32328203389440   12.20011208108791   25.12417843590246
H         6.41966827780815   11.88751596375071   26.60697062715957
H         6.07265954357268   13.32742018492624   25.64862769244399
N         0.30904481502988    9.39830684153441   15.07365269720726
N         1.39831158667252    9.74236262682467   14.37253110261109
N         1.39749766009115   11.43720440809659   16.85054116380385
H         1.11025500971679   12.41077821969599   17.00674640769816
Cl       -2.60529880944286   10.39690416972015   15.35751603200029
Cl       -1.34397500366402   12.53849511493208   17.39893833159186
Pd       -0.58133160985932   10.84687078073862   16.17064056739855

