74
CSD_code = TERDAX | q = 0 | S = 0 | Stoichiometry = C23H45Cl2N3Pd | MND = 4
C         2.89074182925309    9.53956443980494    0.38365210891905
H         3.40386987004380    8.73353093840236    0.92073809509747
H         1.99011329244399    9.15551326153880   -0.09192203437637
H         2.60504821646463   10.29934614646270    1.10938218797836
C         3.80929936923779   10.11810029966997   -0.62990819173140
C         3.52878333641832   10.97647472145774   -1.70522911672806
H         2.57863865724885   11.39828232008969   -1.96010733059460
C         4.72437707373321   11.16757891339223   -2.36656603119704
C         5.03808975624473   11.97331742530270   -3.57408381198548
H         5.77323296276407   12.74445959431264   -3.34458757342532
H         4.13258938534196   12.45629989972507   -3.92928839015981
H         5.43395749177815   11.34732782394213   -4.37408195151315
C         7.02003687714715   10.15958772910234   -2.01288783311487
H         7.63501717493164   10.33798902923517   -1.11639167464803
H         7.34677984776825   10.82507344759124   -2.81249057844824
C         7.14388297547942    8.68389879454299   -2.44563131272354
H         6.24709340375856    8.42212145088445   -3.01441335665795
H         8.00563331794794    8.58315055754282   -3.11611382775926
C         8.68168633744018    7.66214484311822   -0.87503761707349
H         8.68409719139525    7.13641619049960    0.08537423332034
H         9.06837115049851    8.67311557154151   -0.69913419451130
C         9.62122677975308    6.92459473915325   -1.83524412826980
H         9.25574417931459    5.91118355906319   -2.00783490883405
H         9.68093808542107    7.42743831789168   -2.80422122348024
C        11.02590019457157    6.84811718238024   -1.23922690857981
H        10.97438739710922    6.35872138538504   -0.26506492930517
H        11.40411824739370    7.85957269754978   -1.08393207853137
C        11.97959349987548    6.07139309978140   -2.14479260886893
H        11.55562359094946    5.08096044698905   -2.32916281616163
H        12.06117985534260    6.57939299815700   -3.10947733635708
C        13.37622495077567    5.90035992055466   -1.54689213184398
H        13.28889981139288    5.46700098392944   -0.54824583772442
H        13.93506274614935    5.19299243794418   -2.16494735742183
C        14.16554421097399    7.20516668069032   -1.46549259619173
H        14.19829509054172    7.66930062120014   -2.45473426993332
H        13.66574120456738    7.89879991145554   -0.78727693675544
C        15.59206879701211    6.97592840676341   -0.97166381266644
H        16.10172005971712    6.28395206691371   -1.64651015505419
H        15.55980366066183    6.51037834883551    0.01588945005704
C        16.38021758677244    8.27772441929326   -0.89227371562739
H        16.44193571376275    8.74715192397972   -1.87204762356418
H        17.39111421911984    8.09297348075598   -0.53667238410978
H        15.89832536657527    8.97420871389380   -0.20935142582700
C         6.67276859211576    6.46079819620600   -1.55631956409459
H         7.11387952114538    5.76049068835164   -0.84351154025116
H         6.89836144132423    6.11854041627938   -2.57637535569440
C         5.16005486733038    6.46147209063476   -1.32828474575408
H         4.66505703974221    7.16525246405451   -2.00533760328963
H         4.97334613157097    6.78493215207291   -0.28331680147838
C         4.55454814246816    5.07369422982666   -1.52008685186168
H         4.71166635011987    4.74267113323645   -2.55025919519624
H         5.06339176451753    4.36732517873390   -0.86164494740980
C         3.06063962772890    5.06765864151847   -1.20448137368420
H         2.54630334278967    5.77368276760564   -1.86193018643569
H         2.91265039077879    5.40503474440597   -0.17626103556290
C         2.44682855380461    3.67982793510019   -1.37135600161705
H         2.57925321574355    3.34608404742197   -2.40382718366598
H         2.97771968872158    2.98068737019625   -0.72404111177853
C         0.95923819725648    3.67393186924106   -1.02615265665341
H         0.45582065033559    4.43313629538764   -1.63078012736698
H         0.83240354779664    3.95096763757625    0.02278354095548
C         0.28457799777051    2.32458829772647   -1.27500642669257
H        -0.79314933047206    2.44597745792891   -1.14149454761535
H         0.45598465059235    2.02107030162108   -2.31059986075358
C         0.77412350329009    1.22660051253117   -0.33784923035258
H         1.82263674716553    1.00128115254755   -0.51257751436192
H         0.20247137261706    0.31462498863245   -0.49372257698480
H         0.65559824169635    1.53175206979648    0.69932780019574
N         5.10040319742524    9.82689764069752   -0.64624796419570
N         5.65401683979510   10.45826221305125   -1.68481721824590
N         7.27173471407859    7.77729817114244   -1.29965298475414
Cl        5.57148134049937    9.81439766587090    2.35613879151789
Cl        7.15278407306481    7.12021214291278    1.90896514061569
Pd        6.17740082210510    8.60774378700354    0.56592326885290

