65
CSD_code = TERDUR | q = 0 | S = 0 | Stoichiometry = C24H34ClF2NP2Pt | MND = 4
Pt        2.92114608875844    3.79472931301425    7.24885016658820
P         0.80680244270628    2.96054856717959    7.22692484873748
P         5.12088255529947    4.25977420711431    6.91902943311026
C         2.17377820499592    1.90640895021141    5.11167927614483
C         0.87573910400460    2.05060444969146    5.66050149825880
C        -0.24203541078367    1.59215511394264    4.98073207969572
H        -1.23314260405131    1.69385641620994    5.39492515154183
C        -0.08541497834081    1.01027426506009    3.73914489198413
C         1.15923343030305    0.92162647780797    3.13766235250075
H         1.24352071976538    0.51666353043119    2.14150805677020
C         2.27181358644067    1.36929761656885    3.81482223710985
H         3.23185247181827    1.34414697124966    3.32296189588290
C         4.52737488113734    1.92751730508064    5.62817545494388
C         4.84342791266367    0.65735874052353    5.11129780046380
H         4.04790418411827   -0.03556304197576    4.88490008800284
C         6.14997163454185    0.25915379954746    4.93532725318571
H         6.38254699723550   -0.71818248630924    4.54270585174725
C         7.17736443766519    1.12025040769950    5.28449951458383
C         6.91956716802009    2.34674722250145    5.86210816376303
H         7.74494980748002    2.96790201009139    6.17362408420908
C         5.60501049242512    2.74623869498788    6.04685924865999
C         0.47588667148208    1.70703664027625    8.55277002090271
H         0.33117079984139    2.28301464214613    9.47511328152972
C        -0.74480370254800    0.83496625575876    8.29056767545899
H        -0.61114796191685    0.25476863466587    7.37957116335396
H        -1.64726005268240    1.43556545273803    8.19518836107087
H        -0.88702490108594    0.14056199154703    9.11726742140323
C         1.75336558207705    0.87963086370578    8.68797872412898
H         2.61538577935371    1.54171704878320    8.82413810227435
H         1.91708649374289    0.28234596215906    7.79154752348414
H         1.69371061007917    0.20978790722819    9.54364641192842
C        -0.67386093684423    4.05954820666051    7.08509250068259
H        -1.53070864278152    3.47947748798486    6.72314210949429
C        -0.29824853255719    5.12477294656519    6.05656275707025
H        -0.07089339787958    4.66895542265470    5.09267223622502
H         0.58373053552249    5.66829608934986    6.40264136136393
H        -1.10980036349996    5.83701839610490    5.92114777720379
C        -1.00062603172816    4.68725001945182    8.43606457444152
H        -0.11198734065508    5.15834841535537    8.85382029958910
H        -1.36727750624356    3.94431329638820    9.14159801748607
H        -1.76804916776986    5.45017709981087    8.31698044105185
C         6.29445227262232    4.38979834822775    8.34246624439431
H         7.32015975411833    4.22794043560771    7.99118447834569
C         6.17804514175966    5.75775254557973    9.00626358058627
H         5.13699852792258    5.96897301414075    9.24646796987996
H         6.55500683349380    6.54718333079829    8.35906297736636
H         6.75231894017181    5.77348186452950    9.93099980295806
C         5.89461726518281    3.27208147624462    9.30417675283245
H         5.98775268668056    2.29743133407246    8.82452982711365
H         4.85576512245607    3.41281964427867    9.61169053695086
H         6.52080003720107    3.28257180096672   10.19410248937758
C         5.44547922037038    5.66930938167769    5.75921844866181
H         5.24846008677304    6.57997540637577    6.33832027853252
C         6.86383955551316    5.70517795490886    5.20577364361156
H         7.06659370487066    4.81309021276091    4.61643809714778
H         7.59908743315727    5.77278281214480    6.00523026100676
H         6.98645443774642    6.57328580960646    4.55989370790104
C         4.39964238639485    5.55742646933873    4.65079473001908
H         3.39795293379278    5.48291208999788    5.08784430648614
H         4.57812226407876    4.66782994497896    4.04740664899303
H         4.42859444569881    6.42877596569001    3.99938307566321
Cl        2.55249831110034    5.40278803932299    8.84877261199905
F        -1.17921431371170    0.55615171680465    3.07966284693620
F         8.46356362057941    0.73561611407961    5.09642187570997
N         3.24786827201619    2.36638297794582    5.82034469950435

