62
CSD_code = TERHEE | q = 0 | S = 0 | Stoichiometry = C23H36NPTi | MND = 4
Ti        3.57761994237729    3.14880828745609    7.52886390479376
P         0.30450276181204    3.04675987052037    7.58883137749029
N         1.79816099961458    2.99921330280021    7.94351130655676
C        -0.78745541481693    2.73145970294387    9.04871583467810
C        -0.19966687496987    2.58995407341972   10.30769896633404
C        -1.00955581121248    2.41578103038148   11.42734580993550
H        -0.54201625798278    2.31467194376517   12.39686469082530
C        -2.38538636542525    2.36340357660964   11.31124241057419
H        -2.99934795569231    2.22696533640723   12.18930827125905
C        -2.96958988310148    2.47977927546812   10.06125355221652
H        -4.04386443895064    2.43010520010753    9.95561214129454
C        -2.17422505652091    2.66511705778184    8.94614652883473
H        -2.64181071803893    2.75589302327185    7.97948203326938
C         1.26385641214070    2.59284851505338   10.52889734456495
C         1.99585360722231    1.41791836061966   10.37608162678912
H         1.49385186506469    0.52228993535157   10.03564275537424
C         3.34705576294640    1.39275309731533   10.67101772101533
H         3.90406000912643    0.47166712801876   10.56532140021552
C         3.97673619058856    2.53198105890703   11.15162051368582
H         5.02681072924317    2.50337405129866   11.40917127264156
C         3.24205039496487    3.68972341111965   11.35310127647803
H         3.71764086153708    4.56691413916242   11.76957429488662
C         1.89266909408220    3.71982773264991   11.04745826390690
H         1.31840997584799    4.62173937303880   11.21018956421612
C        -0.22749228350325    4.79539942149673    7.01764506637004
C        -1.71622306133473    5.10816380233897    6.92440904132096
H        -1.83906232850373    6.13106289502830    6.56561232384840
H        -2.19222040470568    5.03796677015904    7.89961679318658
H        -2.23008990411742    4.44880048353936    6.23082071805548
C         0.40963155220222    5.68631001004858    8.08424959920212
H         0.26182256568524    6.73944371011893    7.84599601513506
H         1.48427662425370    5.47669660361673    8.14305539043583
H        -0.03625585016792    5.48545881288012    9.05920650276813
C         0.46247933178832    5.04980212136025    5.68150300782859
H         0.46960099541066    6.11626334432396    5.45440190835300
H        -0.04692394638806    4.53745819372812    4.86718591588390
H         1.49704760429602    4.69623585945272    5.74372864438823
C        -0.17071447755940    1.67907570818874    6.32567020726419
C         0.99991432658008    1.59014376629394    5.34752518900658
H         0.92923936765328    0.67317462838566    4.76182971807037
H         1.94697757157533    1.58357255102817    5.90593205070589
H         1.00341626370559    2.43330690320973    4.65889014839063
C        -1.47259948694948    1.81588554984727    5.54503048472938
H        -1.56332878527857    0.97211519706170    4.85931450697963
H        -1.48740287267634    2.72719087687974    4.95233168423659
H        -2.34162167327711    1.80146496772449    6.19640569342419
C        -0.18250265121735    0.40569821773828    7.17108991185864
H        -0.23710657720646   -0.47750894395677    6.53468481946878
H        -1.02927148946577    0.38792649897663    7.85548564489289
H         0.74076944965440    0.36014597841220    7.75222491713551
C         4.03718478678311    3.77352079530039    5.58290323994049
H         3.80878879707428    4.83500869649143    5.40499682984752
H         3.56569009986639    3.19120406509702    4.77969292974471
H         5.12669814090668    3.65747061568837    5.47132204216360
C         4.55256561807847    1.29762684573136    7.56775889538853
H         3.90597269949215    0.46208200241636    7.87459926887449
H         5.40484059952038    1.33165139733061    8.26444072419468
H         4.95528061235427    1.04693657740272    6.57295527719408
C         4.60315664652284    4.65886309462875    8.54558275277912
H         3.96769206212386    5.27178246848310    9.20064841272005
H         5.09247051718288    5.34505631071185    7.83665392191204
H         5.39743972986126    4.22319471949709    9.17014694031750

