53
CSD_code = TERHAA | q = 0 | S = 0 | Stoichiometry = C20H27Cl3NPTi | MND = 4
Ti        9.40606072586958    2.47892905234795    3.65613172686684
Cl        8.36533474523682    1.55153112900698    5.32327179314117
Cl        8.34792055444002    2.51080501250541    1.76005848152710
Cl        9.02390346837075    4.55784756257068    4.18802718680112
P        12.63453311979252    2.53964393663414    3.61630149633506
N        11.12372469460315    2.15358277222352    3.59505700196486
C        13.68844009641374    1.09733347012764    3.17515771641034
C        13.08965237714628   -0.10769911646205    2.79630510185899
C        13.89313984276049   -1.18291294864223    2.42761542626034
H        13.41929337054014   -2.10794027889457    2.13271076529597
C        15.27141076745572   -1.08034356019912    2.44122903669118
H        15.88003662917282   -1.92351789865400    2.15117119367801
C        15.86639228487414    0.10590830215046    2.83723756315331
H        16.94250452134553    0.19339709574251    2.86316459759496
C        15.07827641575671    1.18222428005916    3.19937391640213
H        15.55216781564263    2.09916366743832    3.51052124789770
C        11.62163938807270   -0.30047111521188    2.79577061773248
C        10.98318672222254   -0.74735832317031    3.95040148364488
H        11.56729573849135   -0.94358244677621    4.83932414192426
C         9.61197895200558   -0.93816190034273    3.96066453153862
H         9.12518698867344   -1.28934460230097    4.85985550812711
C         8.86773565672917   -0.70397785702348    2.81111441599195
H         7.79701183935514   -0.86211495464983    2.81676234249247
C         9.51017692996369   -0.32617498536749    1.63949107865059
H         8.94422741408903   -0.19943998147038    0.72739359620160
C        10.88163164255304   -0.13152582629648    1.62956717229894
H        11.38137106986940    0.15727144116408    0.71541909643194
C        12.97647573315440    3.84046795223696    2.27433328036490
C        12.27097892913966    5.13170140301527    2.67608120068236
H        12.25133994399374    5.82014889762956    1.83175401352548
H        12.78250747676779    5.62703405733958    3.49904872876597
H        11.23794068994281    4.91880582442301    2.96791013478247
C        12.29171773316647    3.25434495705045    1.03879341760294
H        12.37788350126985    3.94148180075176    0.19845518857802
H        11.22856399206581    3.07959224888466    1.24375786863584
H        12.75512569005068    2.30760392576568    0.75960782665601
C        14.44662314367329    4.10274360994366    1.96501351551843
H        14.51147200440660    4.88130405929292    1.20512352129778
H        14.92931508233009    3.21176419466690    1.57070433601595
H        14.99159776937304    4.44602414111367    2.83975144293743
C        13.10637033772103    3.03805190340257    5.39065683066407
C        11.92013965701327    3.81384755075421    5.96329387870547
H        12.09034535249896    4.01528502727721    7.02036196606207
H        10.99831009657907    3.22425889712855    5.86705455925890
H        11.77226822616787    4.76390852997318    5.45323337273954
C        14.38390239957187    3.85416779474158    5.54846661769227
H        14.54083733566353    4.06446370534378    6.60638277142713
H        14.31254757258509    4.80597905607378    5.02827905023686
H        15.25586107296449    3.31499147281504    5.18868738669460
C        13.21459932816490    1.70557272041884    6.13277072538227
H        13.30148329643947    1.87719506606745    7.20469919349407
H        14.08052109821455    1.13224427929761    5.80546329162749
H        12.31093876562876    1.12064499808708    5.94891764374437

