62
CSD_code = TERHUU | q = 0 | S = 0 | Stoichiometry = C23H36NPZr | MND = 4
Zr       -0.07725116460816    1.99486960591199   14.70044187752384
P        -0.37106642897033    5.24704107289114   13.74104565172089
N        -0.15271321806341    3.73782309521568   13.64413792675825
C         2.31822925241424    3.96810748279026   13.06092469417125
C         2.84073323784652    3.38839331341970   14.21896453411798
H         3.13536588679058    4.02266552273811   15.04674207300019
C         1.11659011956298    6.19515750212885   13.16319746918665
C         1.15981453316565    7.57071682173499   12.96005792495706
H         0.27688651688857    8.16409495237674   13.13390125533374
C         2.26677800023855    5.44316113582359   12.91527859715475
C         2.31741975782394    8.19565495160511   12.53480520982369
H         2.32816947077090    9.26548633301526   12.38299045693802
C        -0.39079363110758    0.26087968704758   13.29301312417283
H        -0.30448936969733    0.55402923441651   12.23383848984606
H        -1.39794505976424   -0.16915667528663   13.41931280415407
H         0.32522197757588   -0.55900246194321   13.46779594811106
C         3.43079535197874    6.07971211915503   12.49344750609198
H         4.31542820601022    5.48606269950992   12.30929210397182
C        -1.78762528931578    5.79222971863442   12.56819700816623
C        -0.62899455975219    5.93449090979588   15.51929051509727
C        -2.41911399491490    7.16964728444588   12.72541551064651
H        -3.21103159818966    7.28027991123351   11.98299319955521
H        -1.70062817583093    7.96748966907884   12.55858676336432
H        -2.86735661933568    7.29557660511091   13.70782484656218
C         0.46487537800493    5.22862547490950   16.32199837198443
H         0.38892568453644    5.48467771176027   17.37967497757032
H         1.44903506575194    5.53822692802218   15.96490997869135
H         0.36606225443068    4.13406288597535   16.20723091002471
C         2.07348839887780    3.15398142171725   11.95188310689755
H         1.74342097174104    3.61026044311143   11.02916755754682
C        -2.86011019339595    4.71308757022756   12.72009515449272
H        -3.53398292763691    4.72424891584902   11.86372400470754
H        -3.45263287126495    4.86679460327898   13.61924787008588
H        -2.38003254314909    3.72967744445901   12.78024180539369
C         2.71134054872996    1.20373202436719   13.20905323061802
H         2.90813405341382    0.13963084910677   13.24916782081171
C         3.46071293189011    7.44878147346785   12.30617789573190
H         4.36991059708112    7.93086310719843   11.97842905476763
C        -1.98840397318241    5.43548776849442   15.99694120904730
H        -2.05737811495358    5.49424899851199   17.08399717349177
H        -2.11005418521652    4.39237876011207   15.69070699509600
H        -2.79803508313474    6.03013237167701   15.57869436969393
C         3.02437884845002    2.01293546081999   14.29624169930233
H         3.49512584908604    1.58178920183398   15.17169640349145
C         2.24867970646604    1.78558501768311   12.03184825685290
H         2.06993731094331    1.17024810877102   11.16058436404241
C         0.98815524263425    1.46385580129870   16.62259368082676
H         1.78919649251510    2.13666327242929   16.97489628207186
H         1.44559858485943    0.46207305849653   16.52498952960185
H         0.27445576223265    1.38485242981610   17.46168779728408
C        -1.15637300057192    5.65443802532796   11.18238161944885
H        -1.91755391849537    5.71144006051558   10.40442212720802
H        -0.66009219628588    4.68573641731429   11.11463439333317
H        -0.42084289825341    6.43686435153237   11.00077708074693
C        -2.13136353108756    1.78138357728376   15.62090232975429
H        -2.93819172050339    2.11591842240040   14.95068832071585
H        -2.24795134177841    2.30170523181251   16.58361566430297
H        -2.29438399750919    0.70998946274176   15.81650636067332
C        -0.50145613555886    7.44012982686475   15.72103298525838
H        -0.69334896812312    7.67678059269333   16.76862893635586
H        -1.21700017663612    7.99137160844955   15.11849176038688
H         0.50173089364325    7.78313082859066   15.47834343130169

