77
CSD_code = TERHII | q = 0 | S = 0 | Stoichiometry = C26H45N4PTi | MND = 4
Ti       -0.88202290760302    1.91333785206843    8.39139395465253
P        -2.40340702242034    2.42758909940830   11.24499819380742
N        -1.36050746188631    2.04783533542346   10.18772618717971
N        -1.80627349960729    3.21314461289282    7.38098549072372
N        -1.27900081340981    0.25044189784773    7.62246354422642
N         0.94226737593894    2.26825743406611    8.18219666509443
C        -1.87936468678489    2.01624792046349   12.97685855273972
C        -0.56900949729915    1.61455563847914   13.25716652565340
C        -0.16958847347266    1.46886210859518   14.58580995374885
H         0.84781084455856    1.16496507721368   14.78988851727873
C        -1.04731052968134    1.68483027071829   15.62966260355495
H        -0.71802109214854    1.56210333149837   16.65114978608798
C        -2.35370288090560    2.05126159319826   15.35397541052085
H        -3.05697570166400    2.21234102688880   16.15863431971738
C        -2.75207812376671    2.22268626472375   14.04198839643048
H        -3.76690310571238    2.52205051327940   13.83979504378736
C         0.43683568371547    1.29289448867738   12.22582622870057
C         0.23970484375817    0.23161127085414   11.34625178989227
H        -0.67058195551550   -0.34638079660822   11.42326248865035
C         1.21949390755146   -0.11708693858944   10.43348890790836
H         1.05896863494694   -0.94521604355517    9.75583190594883
C         2.43109258849014    0.55776614096779   10.42725739971604
H         3.21076559948150    0.26313321606501    9.73915359928102
C         2.64797956724827    1.59257121596938   11.31966767426703
H         3.59653018761999    2.11166059024157   11.33191752113019
C         1.65318962842059    1.96484392722841   12.20766062515512
H         1.81923891924073    2.78523558370636   12.89283851468593
C        -4.09394400519779    1.51920441252023   11.00934391397982
C        -4.27038504321264    1.41361986838208    9.49413265853440
H        -4.99188170702474    0.63238597260626    9.25055044100918
H        -3.30545704112458    1.17593804978070    9.02430229681694
H        -4.63307658409490    2.35267985936870    9.07962832309541
C        -5.36984773813972    2.10257164325287   11.60979919119425
H        -6.21354115501172    1.48023296239440   11.30615710974392
H        -5.55783572232390    3.11049589443375   11.25018590537100
H        -5.35023213087356    2.11224822078669   12.69586242865157
C        -3.85059744490070    0.12077296203068   11.57598077161480
H        -4.66017762767292   -0.55442738257150   11.29733954374217
H        -3.77762231636994    0.13750687139359   12.66219683951347
H        -2.91847383987017   -0.27482822091824   11.17276521796656
C        -2.67526879302230    4.32421177436035   11.35356842733854
C        -3.31378495384232    4.73364143573189   10.02892802019217
H        -3.16421214498746    5.79885776641528    9.84773535554030
H        -4.38567645623447    4.54335367771667   10.02887337082436
H        -2.84336533586318    4.16536068928556    9.21791296912603
C        -1.23912766438469    4.84304069593710   11.39183967812131
H        -1.21631958166944    5.93273050938248   11.36778868480145
H        -0.69946894328409    4.45182397183149   10.52628029374555
H        -0.73346968783004    4.50383724509367   12.29709258386342
C        -3.44465568733733    4.91029184328913   12.53200414474967
H        -3.50137152480946    5.99305210273754   12.40851299288787
H        -2.93534573556040    4.70829918953293   13.47153519738395
H        -4.45983916612015    4.53002487589421   12.59225412590506
C        -1.20913323710709    4.47886805757761    7.03253831534640
H        -0.68931867257557    4.44079364110435    6.05325223715483
H        -0.49330124637433    4.78626337395797    7.79974935161006
H        -1.97896943122150    5.26888371924949    6.95104716995286
C        -2.89303778789765    2.91877962597428    6.47884998113115
H        -2.56454077195109    2.92132432166366    5.42050899376766
H        -3.69228662283333    3.68020742142614    6.56085261253900
H        -3.32737969842801    1.94225143941839    6.70596270235699
C        -1.63600870686446   -0.98260898823675    8.27424417440939
H        -2.63142987844994   -1.34418607125716    7.94764422261574
H        -1.65570213727453   -0.83832367052363    9.35603843310707
H        -0.91380352490944   -1.78912630536153    8.04097601522596
C        -1.22320711464606    0.06081930237838    6.19463199219558
H        -2.20238887357673   -0.26480437400556    5.79041858752377
H        -0.49423784152670   -0.72571154105648    5.91516281548623
H        -0.93584587606061    0.99198846366367    5.69682779303551
C         1.62667045896380    3.39051486516664    8.76711221464222
H         2.65125460854796    3.11353482828100    9.07227247312332
H         1.09347381344083    3.73040455029520    9.65941374208321
H         1.73002085971377    4.23787004176377    8.05823053787307
C         1.71692128597858    1.71712112741523    7.10064046587058
H         2.75841228904964    1.52677726053350    7.41802898506417
H         1.77221956614334    2.40686155527081    6.23298286008781
H         1.28916654154562    0.76902783290060    6.76919303757205

