49
CSD_code = TERKAD | q = 1 | S = 0 | Stoichiometry = C14H23BN8OPW(1+) | MND = 7
H         2.78244912458885    2.86618682594522    6.31235756195080
W         1.35939336070847    4.69501001252604    4.24254291922652
P         2.03326525492510    5.20065118272496    1.85555394970044
O         2.72730701121952    7.15677683365881    5.13339203055333
N         2.47580138024338    3.35686798233080    5.46774826545444
N        -0.36483268143830    5.80347909561568    3.59876154458559
N        -1.59267015438823    5.26686611003219    3.66187057714069
N         0.31527621677268    2.94551802019039    3.54457170920723
N        -1.01285164407655    2.83835254669413    3.68281963950526
N         0.03343667193360    4.54665967909674    5.92862129500095
N        -1.23146481963158    4.13236682151785    5.78635349566464
N         2.17744912150741    6.15838289842504    4.81483986203280
C         3.13311971401401    3.51544581616679    4.40911131237668
C         4.49910445680391    2.98461719133531    4.14629598459391
H         4.83918132437280    2.34520797828185    4.96303159229342
H         5.18648630145974    3.82521916917455    4.04693960254115
H         4.53380577126673    2.42143554464322    3.21572670218682
C        -2.50224510104418    6.17116443951742    3.28069088413595
C        -1.84449117229675    7.34120485280854    2.95218621066318
C        -0.50151797740441    7.06200762873026    3.17869640278632
C        -1.43178367596133    1.66230849243655    3.19609301021575
C        -0.33358582944364    0.97482797362880    2.72035782608399
C         0.74096516670189    1.82501177361366    2.96490454807223
C        -1.82078214478696    4.06282448732325    6.98678877751511
C        -0.90037638482349    4.44082421974605    7.94492068185195
C         0.25315495515521    4.73969926522298    7.22584274292472
C         0.68565661413334    5.16204243501960    0.61040819352125
H         1.09734099637797    5.34876363221804   -0.38105052433976
H        -0.06415656379602    5.91994554431624    0.83075100867715
H         0.21030264402143    4.18124730876221    0.61896601808436
C         3.25502630204373    4.09978982351123    1.05140477405821
H         2.92187366235911    3.06526413201192    1.09141073849112
H         4.21304520832089    4.19404061466236    1.55731684158088
H         3.37437850321828    4.39213444329986    0.00819289445848
C         2.81792021278321    6.82288288960063    1.54238453241630
H         3.66114641470433    6.94445195876258    2.22164155258657
H         2.11586010536712    7.63375221528047    1.72003787388307
H         3.16890530019199    6.87459619583326    0.51195989306089
B        -1.83112388209402    3.92676760402185    4.38433315197824
H        -3.54780607204459    5.94117473886483    3.26968847320454
H        -2.27425955476500    8.25975647013893    2.61229860130747
H         0.34949790012039    7.71246468422095    3.08719861279509
H        -2.46576998925793    1.38650529717835    3.21513240931738
H        -0.31129044768524    0.00588998056211    2.26828548133897
H         1.78358744013882    1.66619534256463    2.75542334762097
H        -2.84143641026673    3.75659051367372    7.09071366965509
H        -1.04481782592298    4.49706163501053    9.00312072095691
H         1.20662309028001    5.08963598917442    7.58064099735351
H        -2.97449789460258    3.65062970992176    4.42652160972940

