65
CSD_code = TERLOU | q = 0 | S = 0 | Stoichiometry = C29H32ClIrN2 | MND = 8
Ir       10.14703649840169    0.62646324228824    4.14781144715337
Cl        9.03389971078069    2.63285956832587    3.68597397964326
N        11.45354423351052    1.14981731070149    2.57756048362473
N        11.75003064383712    1.84477119300345    4.61366996516547
C        12.18798471616141    1.99365777132103    3.36166470774726
C        13.14179568153269    2.86116820587559    2.80154862747303
H        13.66920651940837    3.56081892238700    3.42819416213939
C        13.33257352030439    2.80999192890843    1.44298451904027
H        14.05280775150072    3.46377208315803    0.97310064582656
C        12.59875456328689    1.91610749574936    0.66076022068218
H        12.75526867539996    1.85304644578881   -0.40416023903449
C        11.64747774339906    1.10843140897972    1.25975885225073
C        10.86975122867287    0.12916160518102    0.46282962276331
C        11.43079413289921   -1.12369777058171    0.21108011997777
C        10.71326492695817   -2.04357686169240   -0.54162034725268
H        11.13945155350173   -3.01676146322905   -0.74124057699327
C         9.46295459339927   -1.72113998421771   -1.03831963502995
H         8.91270021160329   -2.44403346436939   -1.62273399375899
C         8.92128375292211   -0.47317525861910   -0.79160027257491
H         7.94813927999847   -0.22214296064609   -1.18831874780211
C         9.61446168068818    0.46935561157515   -0.04296378003119
C        12.79947729668169   -1.45935807930726    0.72691033721952
H        13.55743726234396   -0.96198938491795    0.12156746380603
H        12.97868199622780   -2.53135637535184    0.68075493301019
H        12.92402864105630   -1.11921691745800    1.75276250420264
C         9.04331150505460    1.82723918022519    0.20660126134662
H         8.08672268375243    1.94432707321413   -0.29531404484735
H         9.72452948285320    2.59790932072498   -0.15104191026286
H         8.90061474694295    1.99538514896839    1.27347816788690
C        12.26007122951707    2.40195623132855    5.76557190385684
C        11.37835100097872    2.81268064813130    6.76914589571363
H        10.31852855693444    2.73889590457081    6.57992313747918
C        11.85767874316359    3.32336927368254    7.95748060910421
H        11.16385256993751    3.64474105308182    8.72097260864550
C        13.22285185953526    3.43252438361384    8.17282424942404
H        13.59733754832232    3.83453176707368    9.10221762995494
C        14.10404375940276    3.01976663205826    7.18715056355495
H        15.16970004177794    3.09626329999456    7.35057195711055
C        13.63597460921165    2.50149806424403    5.99549490193668
H        14.32777382900213    2.15688323288856    5.24125735366829
C         8.25941669756135   -0.48441928236683    4.63475721996209
C         9.01879419063050   -0.20675000869897    5.82797856984525
C        10.24634139789555   -0.94345192429493    5.74833473123536
C        10.29044647482551   -1.58312358921191    4.47777899900508
C         9.04905460719971   -1.30342572802747    3.79020006653400
C         6.84847291575417   -0.04649920293567    4.41562549967617
H         6.46496943018846   -0.42301291815223    3.47182274602077
H         6.78420767710437    1.04106366107886    4.40302850203559
H         6.21928180646309   -0.41558978761250    5.22586341829430
C         8.46190113240513    0.45174954025940    7.04983782547399
H         7.87723250559748    1.32829336148161    6.77919668910348
H         9.25628998350279    0.75400586043761    7.72746296270583
H         7.80604223350515   -0.24376900908136    7.57748463717127
C        11.24788839634460   -1.07610396576229    6.84857370964371
H        10.88523555247755   -1.78845103577333    7.59153990428737
H        11.41216782421245   -0.12112095191810    7.34504411758531
H        12.20186079198273   -1.43285856710251    6.46907660667953
C        11.31592832256660   -2.57458878225328    4.03323163527000
H        12.31517700743592   -2.27603681424256    4.34392803639141
H        11.30616873149665   -2.68323394140675    2.95231136362943
H        11.10139230375759   -3.54921248997117    4.47588052507644
C         8.59324493944225   -1.95557842136815    2.52466450578209
H         8.07742213610666   -2.88937843057594    2.75656605109620
H         9.43173738262103   -2.18174033822733    1.87211586264874
H         7.91007657805897   -1.31161272092420    1.97698653102372

