45
CSD_code = TERPAH | q = 0 | S = 0 | Stoichiometry = C15H18F4O5P2W | MND = 6
W         0.05191197841443   10.29889824855444   19.70627209499200
P        -1.58239409673991    8.51972845621211   19.56105661512226
P        -1.48118279599765    5.68057062566650   19.46173177054343
C        -1.17090487282310    7.16329870660937   18.30275510435432
C        -1.28959093184100    7.07277176317773   20.74915445282188
C        -1.30080506224420   11.76815407394017   19.69363236918652
C         1.43550324242732   11.71903186390348   19.82883760719189
C         0.14994219770661   10.37067310888978   17.70638199162394
C         1.55341331863948    8.97580952636341   19.72776339736512
C        -0.04946396651991   10.21910763345030   21.70567923560418
C        -3.43980318042267    8.71082774201912   19.47978829076114
C        -4.21417130102658    7.39788730349494   19.39813821971793
H        -3.95706294156244    6.83468049584269   18.50255823597082
H        -5.27884022051142    7.62306095652045   19.35297161005910
H        -4.04461740312733    6.77606358114914   20.27554734906257
C        -3.70034873635939    9.56643208824691   18.23745063252359
H        -3.45608683879187    9.01891339430827   17.32878395178394
H        -3.10223739937909   10.47887995679934   18.26310550792673
H        -4.75041048698866    9.84925840833164   18.19332580391495
C        -3.81803606325407    9.47958456886313   20.74841062114590
H        -3.23257288079102   10.39632332738076   20.83479320317733
H        -3.64548865895998    8.87466653906023   21.63696773561550
H        -4.87179149691523    9.75034199728769   20.71976976734306
C         0.06605459972220    4.59541064601389   19.51944054285334
C        -0.06359958082520    3.71809073660914   18.26959078648556
H         0.03126528012198    4.31985541529415   17.36637243814010
H        -1.02834454245967    3.21081140584418   18.24741607349088
H         0.72080021660231    2.96406737231696   18.26072554947560
C         1.43283055281502    5.26909377700086   19.54289523681173
H         1.61641315867700    5.85198176277354   18.64563040001832
H         2.19295828475607    4.49015510093671   19.59181568661760
H         1.56000751471843    5.90730146451779   20.41149528030480
C        -0.13128634079660    3.76011239319702   20.78893659586770
H        -1.10713705118243    3.27345027504848   20.78822175473721
H        -0.05727692327404    4.38615937330512   21.67721412972703
H         0.63500792803862    2.99006265833005   20.85022234336395
F        -1.91757603386946    7.10677759612854   17.16892700869077
F         0.09966489703001    7.38203405379412   17.86188490081151
F        -2.13802627171983    6.93864130649664   21.80179658643192
F        -0.06456479217728    7.24778181808941   21.32125272750864
O        -1.97400839565433   12.69157930988991   19.69227009837368
O         2.22791575667999   12.53739321170909   19.90123671326733
O         0.20692098612715   10.42210250281908   16.56991309741079
O         2.47954401690652    8.31566696386567   19.74518100009676
O        -0.10722466317014   10.18400648994894   22.84278548170536

