68
CSD_code = TERTOA | q = 0 | S = 0 | Stoichiometry = C28H35ClO3Ru | MND = 9
Ru        1.22860614853090   11.72538484358333    1.24153414771252
Cl        3.47711081592451   11.13654013165675    1.41340120209231
O         1.44878131193329   12.26069905888269    3.23773130456964
O         0.89475335477015    9.75326312559753    1.79586122476528
O         0.85587022015946    3.62738309424212    3.03041805210192
C         2.58711458727872   11.88198241835392   -1.90686430132391
H         2.30589276099805   11.04866440763803   -2.54601435902466
H         3.45921576239285   11.58682739193664   -1.31889250719944
H         2.86774445908748   12.73370573863504   -2.52473259215034
C         1.47434933765438   12.24898204798472   -0.97512875951572
C         1.55795722352894   13.45027524962323   -0.20961945587602
H         2.41112677181931   14.10589891695168   -0.34605055760067
C         0.52789374673676   13.80830721460506    0.66710470429808
H         0.58483170671042   14.74961484257319    1.20474587012675
C        -0.64158822681299   13.00264666965273    0.80320856301596
C        -0.71730255567650   11.82484287828138    0.04787195272841
H        -1.60813664014909   11.20958245615423    0.09084425562203
C         0.32682382183843   11.45072751310117   -0.84014243141934
H         0.21190864665150   10.56353184554212   -1.45313830469167
C        -1.76890648085352   13.43729388871139    1.70984929059965
H        -1.46875208031965   14.37039168629203    2.20020708664868
C        -2.01397729309325   12.39005121856242    2.79850867186190
H        -1.08083492531304   12.18123761399752    3.32094944493479
H        -2.38571357724485   11.46166984211239    2.37127988050209
H        -2.74317001817249   12.75425805468429    3.51858648356695
C        -3.04158441036384   13.70693957518016    0.90232455149442
H        -2.85390476034574   14.44954207225191    0.12943589868651
H        -3.82439405755893   14.08119089653625    1.55767256078293
H        -3.40022172680369   12.79748736429969    0.42621624417384
C         1.68520357746794   11.38214064544822    4.09652012459226
C         2.06011177250386   11.72045092875777    5.53597318074435
C         1.71086893106970   13.12572397870018    5.97304061727867
H         2.18157786632359   13.84174873685959    5.30332252958685
H         2.06112150244895   13.30797144526348    6.98651860852646
H         0.63488562873111   13.28059450321762    5.93737539627768
C         3.57428362969591   11.39005728796305    5.55030619104230
H         4.03724159585409   11.78039793861592    6.45617860635403
H         4.06927135303611   11.84582019614612    4.69332326002058
C         3.61572810202310    9.85313467837588    5.48240620650648
H         4.17010472315091    9.51190012165914    4.60963234547865
H         4.06935667180591    9.41371697603735    6.37028613482528
C         2.12472733746114    9.47993487958568    5.36740197896250
H         1.89457974738950    8.43751527393406    5.57339589664628
C         1.70004636339634    9.97651365288315    4.00332063167184
C         1.44137304889035   10.51594390106042    6.28744676523826
C         1.82914834651462   10.41480379604477    7.75962370359620
H         1.52305614064657    9.44604683255446    8.14960008826243
H         1.31778324639016   11.18641891270511    8.33137050913791
H         2.89516908429578   10.52480359648019    7.92073145065405
C        -0.08363713733976   10.45948559795772    6.20063505126879
H        -0.42952771658839   10.53994959983611    5.17330425879147
H        -0.52733818060566   11.26648371696368    6.77977939215193
H        -0.43963898396107    9.51412270714587    6.60521351992030
C         1.28861333692317    9.24561228637498    2.89295755687089
C         1.20488079242084    7.76347484356281    2.97316258834399
C         2.27786640349472    7.00232529765134    3.41618643368663
H         3.19364992262403    7.48940619059147    3.71011353382552
C         2.20308940213408    5.62071691278277    3.44600821151377
H         3.05973496806440    5.06029693333930    3.78592378589023
C         1.04165705204158    4.97587015502005    3.03367020510955
C        -0.03382181039725    5.73974118744728    2.57453683479268
H        -0.92400274427150    5.22540452690699    2.24812614174423
C         0.05365088162470    7.11280568659796    2.53430597423227
H        -0.77511551611021    7.69973196552521    2.16843000092450
C         1.91104867666322    2.80149782091911    3.45931696576413
H         1.54338156029140    1.78085527737580    3.36527478388065
H         2.17492345583076    2.99542151789416    4.50407944106687
H         2.79905304473813    2.92483743628276    2.83113297336358

