48
CSD_code = TERVUI | q = 0 | S = 0 | Stoichiometry = C19H23Cl4NTi | MND = 8
Ti        2.31375753058592    8.13824064691911    2.57102215666921
Cl        4.44048278421086    8.25703945476954    2.88165990727292
Cl        2.16123698452946    9.68136205266935    1.06771077802179
Cl        1.63572661481474    9.32758793849153    4.23954055683126
Cl        0.57636310347649    3.28373958078685    3.30016135302327
N         3.18543724536207    3.19550265642731    2.85904170180639
C         3.48904750043664    3.99615982087349    3.94660508193223
C         3.03211944236257    5.31883632981153    4.05795366906853
C         3.40060035461333    6.06800313476797    5.17502697923598
H         3.04557181320244    7.09302324172649    5.25790584678359
C         4.21349127035198    5.52830534817150    6.15382429723777
H         4.48968133512882    6.12172923771163    7.01168146890787
C         4.68367330828848    4.22977181489771    6.02367992800237
H         5.32869857706912    3.80838126230209    6.77968406490538
C         4.33101378759295    3.47185778130537    4.92571020283733
H         4.68093153804764    2.45689410131564    4.81588149709983
C         2.06749947108244    2.84098679173995    2.45408719564465
C         1.85986110988181    1.98200404607155    1.23987480295233
C         3.21789775219306    1.63535035121460    0.62707996360731
H         3.75612860066650    2.53559391376228    0.34785093670725
H         3.07584655238526    1.02006436771285   -0.25766184715144
H         3.82572237669120    1.08858176655471    1.34164969636042
C         1.13982119459395    0.69187934282476    1.65104712243244
H         1.72519595221357    0.15021032587301    2.39035543472234
H         1.00658393431756    0.05500995491563    0.78026769582248
H         0.16269312019767    0.90956587936876    2.07332288671796
C         1.00527927955016    2.75615242636311    0.22895793549369
H         0.02849680451302    2.98592432210287    0.64593968915173
H         0.86811120397804    2.15830317282068   -0.66853248272424
H         1.49108268910458    3.68995749386676   -0.04268050955707
C         2.18991371135482    5.93485306350650    3.02041742618640
C         2.51286333072198    6.08595312572441    1.63648160152809
C         1.41075384582307    6.71775981900217    0.99974145617954
C         0.42261098967847    6.97066214114665    1.98640799214471
H        -0.57382236927788    7.35395591068997    1.79585229191879
C         0.89050926878287    6.48742838585473    3.23548741747078
C         3.77491423046508    5.64830078743918    0.95210270294902
H         3.56520139371093    4.85252005298603    0.23517806771286
H         4.49583108925642    5.27832601202058    1.67908825474730
H         4.22377303325024    6.48350244365746    0.40787689506031
C         1.27162049830617    6.96741217227435   -0.47083045968515
H         2.21313232366131    7.31138299570543   -0.89908916028594
H         0.50871458754005    7.72114833642122   -0.65806624289088
H         0.97949914384747    6.04652659319102   -0.98130883125753
C         0.08185759157506    6.40701963249611    4.49593779289550
H        -0.82869403136246    5.83344290304322    4.31315834461600
H        -0.20776861157979    7.40111087105811    4.84077776898217
H         0.65013674272220    5.91537619587602    5.28383867191154

