125
CSD_code = TERVAO | q = 1 | S = 0 | Stoichiometry = C64H56CuN4(1+) | MND = 4
C        -1.75041707427139    6.42260339803363    1.68928316373264
H        -1.94162060671492    5.35474407816912    1.51572894837195
H        -2.35594737408379    7.00752082481979    0.98769670763095
C         0.44146859880874    5.90457197307257    1.01988506398407
H         0.07564465825891    4.92051023244344    0.71506556299850
C         1.82863143067162    6.17598922680146    0.85325881791755
H         2.11353329767501    7.20862195593786    1.00258105146711
C         2.76592714006220    5.24192877826859    0.55393163201057
C         2.45016933869782    3.81022794659877    0.46317006702550
C         1.70129574482157    3.16808851579630    1.44833186085987
H         1.36982162009615    3.72482713219281    2.31233560112549
C         1.42316670084006    1.81746111842631    1.34885535973065
H         0.85034543126572    1.33294027642096    2.12535408377245
C         1.88125455579770    1.08927614120021    0.26369047563895
H         1.66119567658092    0.03556225304920    0.18648686602217
C         2.62992053592743    1.71688187278315   -0.71940632151992
H         2.99126226924201    1.15315657313143   -1.56601764181405
C         2.92052271070900    3.06381438642241   -0.61794876476075
H         3.50049505564641    3.55305486569015   -1.38690186886843
C         4.16367781891706    5.61879118263119    0.33898729846080
C         5.18809094021893    4.74821469685174    0.71778621210648
H         4.93539961091781    3.79680091784171    1.16193347557655
C         6.51209835138922    5.10168472118440    0.54600875590553
H         7.29301655013647    4.42205008146970    0.85181212816914
C         6.83902667332104    6.32259585438789   -0.02157821180452
H         7.87388658904683    6.59356124104383   -0.16511805837926
C         5.83222695080750    7.19035578893899   -0.41411352420755
H         6.08280091711714    8.13708364319323   -0.86959754981605
C         4.50641971883133    6.84625814752374   -0.23184420012065
H         3.72660902402789    7.51643318303501   -0.56312939539306
N        -0.36979890331977    6.76883799043885    1.49886204195787
Cu        0.00000023972550    8.56522896099079    2.40559184277449
C        -2.14282777220914    6.81460206324871    3.12104390866772
C         1.75037365176377   10.70799357992399    1.68954603333579
C         2.14269963319998   10.31589187020963    3.12130214527685
H        -3.21076771628404    6.62350203127637    3.29420967546405
H         3.21061746871426   10.50703190827516    3.29455856351484
H         1.94152896963172   11.77587732836428    1.51608800986881
H        -1.55823354648801    6.20872278215604    3.82260549595079
H         1.55802705319434   10.92168360858420    3.82287351594868
H         2.35599397663101   10.12316778501481    0.98796210433778
C        -2.66049177878895    9.00618948046797    3.79174406038152
C         2.66045097786698    8.12427386996664    3.79182659731401
C        -0.44148523604645   11.22590795137586    1.01994610323772
H        -3.64451912001201    8.64030955094541    4.09659426439690
H         3.64444205860018    8.49018727770605    4.09675637934732
H        -0.07571574713760   12.21002344766208    0.71523906957248
C        -2.38886584211628   10.39322824614317    3.95902972147509
C         2.38890021739948    6.73720844350452    3.95901154626990
C        -1.82862080895751   10.95439646336868    0.85324021371652
H        -1.35627312127041   10.67809941051757    3.80935586726511
H         1.35632637527990    6.45228396108617    3.80931300397033
H        -2.11344805118470    9.92173850948256    1.00253541331529
C        -3.32265628477768   11.33046117651699    4.25938968518648
C         3.32275196136240    5.80001940735647    4.25932072662125
C        -2.76598120487682   11.88837438872712    0.55386303325109
C        -4.75434523263225   11.01484967464456    4.35084350838232
C         4.75441657689500    6.11574056466477    4.35079289607182
C        -2.45036926725346   13.32010743122404    0.46312822023386
C        -5.39722871687958   10.26663636574931    3.36566632761747
C         5.39723820316620    6.86402866145018    3.36563227003405
C        -1.70158965786962   13.96231872424550    1.44831447534114
H        -4.84110139335737    9.93557483626487    2.50111133952446
H         4.84107961980580    7.19506685163470    2.50108821598867
H        -1.37007113979512   13.40560845906259    2.31231907648166
C        -6.74783571393421    9.98865795532302    3.46585694956634
C         6.74782142524133    7.14211827676147    3.46582840166137
C        -1.42361584954239   15.31298018287778    1.34886338073563
H        -7.23294706613027    9.41636799105393    2.68933536710935
H         7.23288405995088    7.71447124463624    2.68932276939192
H        -0.85086487598170   15.79755487045398    2.12538034369945
C        -7.47525206949313   10.44622900754899    4.55175540172802
C         7.47527513900459    6.68458470938440    4.55171772570109
C        -1.88176164489876   16.04112787651469    0.26369801739547
H        -8.52894775529743   10.22627918101924    4.62951529793899
H         8.52895175843659    6.90462339723088    4.62948460187865
H        -1.66182672304660   17.09486936034696    0.18651730473214
C        -6.84690067274552   11.19423517372217    5.53487785394032
C         6.84698630845257    5.93650168282852    5.53482151943570
C        -2.63032578171097   15.41344836286964   -0.71942927065336
H        -7.41002114763165   11.55516537077281    6.38206711049650
H         7.41013718947743    5.57559945525021    6.38200244192650
H        -2.99172360501076   15.97714658563160   -1.56603470339673
C        -5.49999206978991   11.48469626289418    5.43271313636002
C         5.50010134324149    5.64593118268474    5.43265139161560
C        -2.92077907541038   14.06648223023377   -0.61799431260947
H        -5.01016727726282   12.06415172016315    6.20168406050334
H         5.01032584923405    5.06641040632556    6.20160459257288
H        -3.50067829789766   13.57718704685531   -1.38696794901679
C        -2.94549371047637   12.72804323081748    4.47491730927208
C         2.94569830634500    4.40239493661798    4.47475245535698
C        -4.16367648306856   11.51136484011518    0.33880557998434
C        -3.81610816391647   13.75278105369192    4.09708819717712
C         3.81641611587923    3.37775534368978    4.09689565287758
C        -5.18821516155486   12.38180537074567    0.71757620356161
H        -4.76777511999209   13.50046353964418    3.65326791355382
H         4.76808381238048    3.63018464153909    3.65314212256354
H        -4.93566591567056   13.33322497575022    1.16179303884491
C        -3.46238170195700   15.07664511858046    4.26943751173022
C         3.46278856942454    2.05384965927480    4.26912688506784
C        -6.51216995202840   12.02819292083536    0.54568330380559
H        -4.14205579010740   15.85782392012740    3.96438951321381
H         4.14254184800372    1.27274901152158    3.96405431682103
H        -7.29318759811063   12.70772566949886    0.85145842650328
C        -2.24115850594707   15.40309403853433    4.83662840294922
C         2.24156729824051    1.72725855811917    4.83623957127030
C        -6.83891761857480   10.80726765871709   -0.02197818116880
H        -1.96997941903775   16.43783854545658    4.98060085672003
H         1.97047122084464    0.69248149572473    4.98013047988950
H        -7.87373590433539   10.53618909958275   -0.16560572700633
C        -1.37334222013975   14.39596166093757    5.22818438671909
C         1.37365817860448    2.73429189427374    5.22784422962407
C        -5.83199112522730    9.93963333052034   -0.41446677342404
H        -0.42635717666858   14.64615742309204    5.68334293709607
H         0.42667899858108    2.48398496592731    5.68295395849659
H        -6.08242404014212    8.99289211288796   -0.87000074508673
C        -1.71770801560580   13.07030212768926    5.04535048735438
C         1.71791984440352    4.05999342848746    5.04511660509029
C        -4.50623667936037   10.28387924334207   -0.23209472388217
H        -1.04747882626361   12.29021496588244    5.37587715381604
H         1.04761078725060    4.84000096441716    5.37566941309496
H        -3.72632520518212    9.61380580839791   -0.56334827577051
N        -1.79643820746809    8.19509857119949    3.31207944560456
N         0.36979520492478   10.36168595807633    1.49898000913764
N         1.79636961197638    8.93536031329738    3.31220367830293

