44
CSD_code = TERWET | q = 0 | S = 0 | Stoichiometry = C18H19Cl2F2NOTi | MND = 8
Ti        0.62108511729304    0.19066497789351    3.45189280229442
Cl        2.01657314017766    1.60424623244756    4.33128654608393
Cl        0.80903770911643    0.92758834721056    1.41503288554244
F        -4.41087748713046   -0.98554705038622    6.23786893908810
F        -1.57396934602864   -4.10749670300204    8.28839837972063
O        -0.81365280914718    0.83903654242828    4.10395856853110
N        -2.69101716186517   -0.45848108997181    4.31759527316238
C        -1.04418677142245   -2.02067512603170    5.36653792650013
C        -0.83331688151729   -2.95829745293544    6.37566401599701
H         0.09749007621697   -3.50125068607580    6.41997293402211
C         1.36645181830272   -1.81868768995548    2.52651792800421
H         1.69393027924329   -2.01235827597794    1.51114994149690
C         0.05841927902159   -1.79466658808803    4.41235049210481
C         0.03747932650295   -1.98829344409170    2.99901242163330
C        -2.05906738549539    0.52161898700073    3.81518891276362
C         1.39938893444439   -1.47143299657593    4.79119844838244
C        -3.23573737552143   -1.63772065070934    6.27634961684047
C        -2.27604601375000   -1.34147742377026    5.29747101434830
C         2.19592384596607   -1.49528603385249    3.61840530535614
H         3.27228880992119   -1.37241868405977    3.59002819842070
C        -1.11369668122618   -2.49883703107829    2.18442896562298
H        -2.06764694127778   -2.19426410300937    2.61247744920735
H        -1.08934727567411   -3.59101280183494    2.15999723079898
H        -1.04683364165962   -2.13507432529704    1.15874473125907
C        -3.02589443231990   -2.54346570510622    7.29474047983679
H        -3.78650029797501   -2.73173745210649    8.03402416539058
C        -1.81066961734631   -3.20354035507265    7.31834424749197
C         1.89986437402325   -1.22853694255604    6.18370142448442
H         1.09052736874819   -0.89808924734320    6.83541915073838
H         2.68056909381395   -0.46712903261875    6.17659006335031
H         2.32561985152422   -2.14420895504058    6.59987111908268
C        -2.78344536536865    1.41569121069335    2.81561406078637
C        -2.06466234297904    2.76496169819033    2.72122247365929
H        -2.02757533661730    3.24485940734340    3.69913924179128
H        -2.60134436071011    3.41715315808244    2.03632550233470
H        -1.04209938657088    2.64310784943084    2.35447071191180
C        -2.76088676116368    0.70180163665710    1.45654938941850
H        -1.73496696121016    0.48944527279257    1.15100065791528
H        -3.22138687892903    1.33750370850532    0.70401344530474
H        -3.32014892137291   -0.22882803880983    1.51488345018162
C        -4.23063708879826    1.61475749930250    3.27445926974894
H        -4.26087771510686    2.15366473105311    4.21793522233230
H        -4.71332834748254    0.65307726706500    3.41802277717644
H        -4.77972943865174    2.18423535926491    2.52894421988001

