46
CSD_code = TERXAQ | q = 0 | S = 0 | Stoichiometry = C18H24O2SiW | MND = 10
W         2.13911803089106    5.56187582610521    4.99241265379650
Si        4.00507632041774    4.65306997541128    3.43377225024433
O         1.63046486044477    5.94552507435345    1.92127550875053
O         3.13745214712133    8.53338448023477    5.10323173533917
C         1.87537811373045    5.81581325533989    3.04408605720056
C         2.78689561350318    7.43697637396357    5.06068573687304
C         0.43160374643520    4.00435272393436    5.19117460632153
C         0.29250700979844    4.87894258017692    6.32350288444954
C         1.45820740497356    4.76184970482780    7.12165287533555
C         2.30403304182637    3.77784047435042    6.51007073323135
C         1.65109117042659    3.28956208171667    5.33603984462182
C        -0.65744755320261    3.67815799600639    4.21038059743599
C        -0.95515650355960    5.61226828570860    6.71064621754377
C         1.64921932989505    5.35781701979300    8.48633662378407
C         3.49147236812791    3.12990038612670    7.15848315532709
C         2.02956448493841    2.05182585910343    4.57730998179239
C         5.01925554392914    6.00046292322849    2.57413837403779
C         5.70035613797480    6.96064228384607    3.31686618218844
C         6.40965569139738    7.97386425506384    2.69951691143038
C         6.44726163692051    8.05019594070903    1.31702463762917
C         5.77538513652284    7.10487079320515    0.56164009706483
C         5.07190558411823    6.09154217935096    1.18787269304126
H         0.94348470354917    6.67837766055279    4.80875237319904
H         3.62798824750767    5.67104466801482    5.68438201818932
H         3.61760528241524    3.69023580515331    2.36878899699560
H         4.97534540270362    3.85020418596048    4.22024726767981
H        -1.26988323780861    4.55239468804717    3.99473262256785
H        -1.30809434632566    2.90032406140415    4.61684346053127
H        -0.24253510958238    3.31625284978787    3.27057104160083
H        -0.72621527850975    6.52913148776393    7.25071000996237
H        -1.55832436840899    4.97626838877603    7.36277736157058
H        -1.55414737348917    5.86846530225118    5.83944917590318
H         2.70557268444679    5.48944858523483    8.71514901163151
H         1.21554769272015    4.70238334442355    9.24573893803713
H         1.16338776820083    6.32935777190944    8.56039582695433
H         4.22284575908368    2.81076194958550    6.41784747545115
H         3.16511398895506    2.24820938538714    7.71488173559378
H         3.98286639428758    3.80718555388550    7.85422983489190
H         1.71077258086182    2.10774792513205    3.53837707442006
H         1.54479299008075    1.18478785400327    5.03297421491348
H         3.10422506026622    1.88672259328572    4.59322189107112
H         5.67100919669604    6.91181496827416    4.39713621809410
H         6.93069297064175    8.70935543295498    3.29575506394381
H         6.99634029772277    8.84391704458303    0.83109991731354
H         5.79938730277575    7.15905396847099   -0.51764166662807
H         4.55022207457738    5.35771405260645    0.59075977868185

