67
CSD_code = TESBEZ | q = 0 | S = 0 | Stoichiometry = C30H28Cl2O4P2Pd | MND = 4
Pd        4.16465635226089    6.10379065509493    5.27442269343392
Cl        5.88243939444915    7.58951709813394    5.30772649723630
Cl        3.61337562069937    6.25042225586186    7.47321156210178
O         4.31223578777564    4.36887056336751    0.27456480420752
O         2.16541520553264    4.94493983024085    0.59886661073938
O         2.39386819283485    1.92721306990685    2.71437438417270
O         0.45862003733229    2.80070459868074    3.44769561213468
P         4.49566817352021    5.97613266079155    3.07988705584785
P         2.60463642725459    4.52607841208423    5.13363011098473
C         3.56237406352932    4.45014107112363    2.48952318045726
H         4.22259430143112    3.58572270750761    2.62734650775273
C         2.28438564351241    4.25532301508034    3.29728134985826
H         1.53336248688785    4.98902664570355    2.98169562126676
C         1.74308852822071    2.86557397451492    3.09621806303189
C         3.23831365427484    4.60607894108161    1.02796122598896
C        -0.18224094219501    1.53513439193238    3.34011951897140
H        -0.61014093870845    1.42540338610887    2.34215009114100
H        -0.97098854363051    1.52067325949181    4.08932304329855
H         0.53716441955176    0.73232568439353    3.51232648693481
C         4.16471533952173    4.50883389134570   -1.13349119720005
H         3.85995007652950    3.55406511390606   -1.56552820172296
H         5.13810185395907    4.80161477450221   -1.52166547507026
H         3.40902704407892    5.26329438889324   -1.36029974667891
C         3.53126464981234    7.33416502762965    2.35614629202501
C         2.67060642983592    8.03219907613615    3.20385846920030
H         2.64161536341616    7.79316781243126    4.27894889270273
C         1.87710180710703    9.04672948793197    2.69869580442856
H         1.21242680559668    9.58821492021539    3.35511992491351
C         1.94150552596995    9.37077741818560    1.35303998715356
H         1.32096113480848   10.16182806922026    0.95933392877051
C         2.81007910954792    8.69237732949230    0.51245958997136
H         2.86750659737143    8.95736953825863   -0.53292517667348
C         3.60661145292893    7.67758332205429    1.00890950447605
H         4.29959618979135    7.16032755278396    0.35995957159447
C         6.08190404111588    5.97434805616667    2.21959412602471
C         6.67586187873673    7.21042972673974    1.96819930849642
H         6.15102993530870    8.11717340554655    2.23523292602271
C         7.93617874907951    7.26776114115164    1.40435171623596
H         8.39362515012150    8.22620084143749    1.20999534775825
C         8.61477825984339    6.09833901875365    1.10048367713282
H         9.59951501217648    6.14435455297352    0.65957277975314
C         8.03901454436062    4.86919133598721    1.37928257245990
H         8.57706155067626    3.95858979179711    1.16040663969459
C         6.78102819992364    4.80131630763601    1.94961992829138
H         6.34740347294930    3.83871110891910    2.17882091277803
C         3.41553278754837    2.97881537916252    5.62976775909090
C         4.80116281817123    3.00694313607612    5.79027815780463
H         5.35032103367781    3.95495862590458    5.67432085500123
C         5.48071477097085    1.84992554062104    6.12716778362922
H         6.55274934701289    1.87241413244984    6.25395671218305
C         4.78389386453220    0.66611088908095    6.30864853361199
H         5.31490389331911   -0.23658636570707    6.57136342380934
C         3.40527920913893    0.63914685220923    6.16784499608999
H         2.86442848286002   -0.28264045487014    6.32350459226330
C         2.71832130757368    1.79067986637375    5.83166617307528
H         1.64105137444725    1.77689518614452    5.74140377104758
C         0.99004110500094    4.53078348882908    5.93951127674653
C         0.93349044157046    4.09625180240572    7.26314480296293
H         1.82838883901069    3.71813833907486    7.73753405042249
C        -0.25452570912158    4.17506830340343    7.96458529229902
H        -0.29582210773602    3.83725360836829    8.98917846179449
C        -1.38580623157867    4.69730175744256    7.35805202411380
H        -2.31362889934122    4.75839543560508    7.90726176622353
C        -1.32317627451273    5.15909966967533    6.05314025931959
H        -2.20025456934389    5.58451984555943    5.58798072497743
C        -0.13742368658249    5.09026360531551    5.34484562094815
H        -0.09483983583369    5.46872612569800    4.33379644066180

