50
CSD_code = TESBID | q = 0 | S = 0 | Stoichiometry = C21H20N3O5V | MND = 6
V         6.62172120575979    0.55506066707724    8.85800615534271
O         5.75926558491030    1.34654048819075   10.11672648145620
O         7.02743134857404    0.43214215404409    7.00476777572981
O         8.30760237930294    3.79392403621621    4.86890250944090
H         8.11992427581366    3.69921276612262    5.83094567703813
O         8.00373822473291    0.27852758186134    9.44188460238093
O         5.72572648955930   -0.79019380180369    8.70593735041667
N         7.19432061617641    2.45439148882089    8.36452138150682
N         7.63037688779274    2.59911551700498    7.10035176281395
C         6.01494192583253    2.32325641118469   10.93279605533461
C         5.48028445531430    2.34441114680530   12.23236475362775
H         4.86622169540330    1.51087079959427   12.54185162398521
C         5.74476855116948    3.39226976287575   13.08552529690709
H         5.33191531861064    3.38433180197947   14.08346806023550
C         6.53627693047905    4.46272643256778   12.67457601715242
H         6.73476852685110    5.27811653300645   13.35278583715099
C         7.06032012697609    4.47557658402932   11.40257294318123
H         7.67347629272048    5.30212511963215   11.07288290986032
C         6.82130869876269    3.41866143584066   10.51470514824408
C         7.32939129465483    3.44341926843448    9.17935934337366
H         7.83624095172590    4.34557495537103    8.82885125905066
C         7.51179863727638    1.46470354736235    6.43975328923484
C         7.88553506423127    1.42087147136041    5.02131099333967
C         7.83252264267695    0.19393809810437    4.35592480556423
H         7.56224403158279   -0.67926322043593    4.93229564755406
C         8.11827389515978    0.10184933587969    3.01179928045595
H         8.07774907603943   -0.85292817564816    2.51056816051081
C         8.45913170134347    1.24898215985365    2.30543577594629
H         8.68152803128399    1.18658713306847    1.25057993846484
C         8.51798818739023    2.47004635326619    2.94244761228024
H         8.78388069811520    3.36801188864585    2.40706121152530
C         8.23975701652439    2.57964241608248    4.30638431959835
C         5.67375778668359   -2.15219117732946    8.73197499097360
H         4.67285411197836   -2.47529337173278    9.06981417429302
H         5.82633063618697   -2.52322842433793    7.69995251637214
C         6.76191871774852   -2.71372751180863    9.64842033062597
H         7.72549334072643   -2.31639147580685    9.32263305061638
H         6.77725646755464   -3.80000545533846    9.61345734332665
H         6.57960921075723   -2.38065287551247   10.67022524957627
N         4.33383565977268    1.61076053804569    7.40636307112648
C         4.49008061366214    2.92347134937434    7.29837791392053
H         4.43592927219076    3.48176063290102    8.22727161357485
C         4.70077552521520    3.56992359867422    6.08898511250471
H         4.83831677296567    4.63963558134582    6.05535527949573
C         4.74423950280054    2.80720371538464    4.93277426538776
H         4.92725648702787    3.26919030244114    3.97355878884724
C         4.54741979598962    1.43923591679111    5.03342988074498
H         4.56396059801938    0.81018275057398    4.15677656714631
C         4.34766892488653    0.89096633149598    6.29228710187637
H         4.18846581307057   -0.17314258155651    6.41969877088212

