32
CSD_code = TESCIE | q = -1 | S = 0 | Stoichiometry = C14H10N2O5V(1-) | MND = 5
V         2.37180347607268    2.74765624774529    1.39282528131407
O         2.85655677332835    3.80337627064289    2.40757298950881
O         0.98193056300814    2.18536582486003    1.73866178068585
O         1.87285438880518    3.70606811835722   -0.06767361234041
C         2.47147858433605    4.54474761554633   -0.83422145522252
C         1.75315219794897    5.62728566587950   -1.39751264519273
H         0.71424636421460    5.73022792782865   -1.11690253554866
C         2.35010890290336    6.51577242655206   -2.25726631180297
H         1.77446188320989    7.33578969468392   -2.66661479807945
C         3.69186413324073    6.37466622269355   -2.61100531409099
H         4.15213965576815    7.07937627127807   -3.28924150180417
C         4.42118277246361    5.33334497297844   -2.08643500485098
H         5.46444522013387    5.21276610315479   -2.35105849572763
C         3.84519007306147    4.41401634012986   -1.20297532195480
C         4.62100977787275    3.34416312457988   -0.66246013587551
H         5.66793695975069    3.24901476060080   -0.97587503648306
N         4.14345985335304    2.50931071131380    0.18946115593924
N         4.96482654608055    1.53888761805446    0.65810116077162
C         4.39758104329326    0.90498509464561    1.66936909756764
O         3.22974444708565    1.16534184358640    2.07028638359453
C         5.18462148055001   -0.16096948548631    2.32883233838012
C         4.61814698464882   -0.82982719956170    3.41115520166440
H         3.62552424861605   -0.53192010103930    3.71776814483248
C         5.30450317781429   -1.83245476069284    4.06562552409085
H         4.85360656662398   -2.34308053224821    4.90394034731356
C         6.57866887649302   -2.17895614259643    3.63979824322060
H         7.12483942177646   -2.96339427214492    4.14570548187096
C         7.15920521028755   -1.52603677299731    2.57134734232336
H         8.15111642406598   -1.78403762747210    2.23141527579567
C         6.47772891421295   -0.50995634066506    1.90053232813093
O         7.08805502467668    0.09376632973563    0.86757860442785
H         6.45911005430298    0.79360405005850    0.53526548754002

