47
CSD_code = TESGII | q = 0 | S = 0 | Stoichiometry = C19H19BrF5IrN2 | MND = 6
Ir        4.18743440911810    7.21311608869829    2.71418614875227
Br        3.37008593737364    4.85249616569489    2.94487023147004
F         7.28307065976825    3.24589481868251    3.52129436500197
F         5.60469679730955    1.59553426991277    4.86805425375710
F         3.86106523517113    2.62580443086252    6.69914148220499
F         3.83879596107257    5.31470510428370    7.18150102664893
F         5.52300737083600    6.94239058174440    5.83456673781657
N         5.87431688340459    5.98836177193439    0.55165300446524
N         6.97290635823239    5.95792242272638    2.39802678318249
C         5.80632748227892    6.37899175859071    1.84152941563912
C         7.05288329611771    5.33548736137497    0.30425726572456
H         7.29868682949149    4.94342751865101   -0.66055721913729
C         7.74413550810016    5.31338887449015    1.46410712949264
H         8.69869242926047    4.89225444837109    1.70030834743029
C         4.82191408500707    6.14207372949816   -0.41483851579693
H         5.21578367730595    6.56284602981556   -1.34055135869381
H         4.06098461357032    6.80411795898318   -0.00176554318794
H         4.36356121145570    5.17392409208775   -0.62531135045188
C         7.29550568564232    6.05281149573074    3.80082265063911
H         7.14886291452854    7.08025307389057    4.14169170924282
H         8.34403835433905    5.77070975997594    3.93038052175775
C         6.41127015377873    5.13567547625258    4.61503159377471
C         6.41317548120899    3.76191287393136    4.39792257221290
C         5.55764036138146    2.90838377045847    5.08424176007344
C         4.67061325886516    3.43199879791913    6.01990739858583
C         4.66314200165828    4.80082347804335    6.26764225085800
C         5.52535550307204    5.63293457400312    5.56297820839494
C         4.46787911877576    9.14977407599206    1.87159186059499
C         5.17688861429873    9.05253654886775    3.08481128217784
C         4.72723704380900    9.70606720456374    4.37080286980064
H         4.84865786285469   10.79181930337123    4.28543356118957
H         5.38909332066197    9.37204696484916    5.17053289963391
C         3.27308894642479    9.36744099151179    4.75182787067302
H         3.20055814435931    9.31206687165807    5.83889300657734
H         2.60045744690873   10.16151944301767    4.42194981685030
C         2.80111625875501    8.05639743443290    4.16634845110350
C         2.16868302740649    7.95339970061060    2.94418807974086
C         1.93113630510395    9.10437710260573    1.99591414566033
H         1.12607851541874    9.73486744080316    2.38814637289786
H         1.58042153129780    8.69284710299755    1.04647443008593
C         3.19052323381745    9.95388002075729    1.74097909941212
H         3.13250841335197   10.37451630933412    0.73498937764496
H         3.22682860812640   10.79254638906693    2.43801630212643
H         2.61056655172460    7.27502416745760    4.89901575671925
H         5.05896486731733    9.10723332122251    0.95786816348045
H         6.26212962875181    8.98089335408737    3.00724242819954
H         1.48683010148737    7.12000552618060    2.78908335557124

