31
CSD_code = TESGAA | q = 0 | S = 0 | Stoichiometry = C13H7ClF5N2O2Rh | MND = 4
Rh        4.56114612778091   -0.12011886166840    4.79596803423020
Cl        3.42935880615464   -0.29391451918824    6.71355038235545
F         3.36813976679696    4.60580824835465    2.89922880542442
F         3.78577895159611    4.26483177306633    0.23524259742894
F         3.32228681788797    1.83318907665778   -0.91040775258857
F         2.45336490709852   -0.24628206221289    0.62715002762921
F         2.06173982191328    0.10109133471470    3.28624885618969
O         4.00385416219501   -3.06053237760903    4.67155139373652
O         5.83526714940704    0.44035904726117    2.15788782635567
N         5.75996091965281    2.38172482989875    6.04634327495390
N         3.80368537100583    2.78005427832541    5.26911936471385
C         4.25791901875398   -1.95201478674831    4.62405789361472
C         5.40853542232841    0.16637209751402    3.19280164646274
C         4.75697328993494    1.82674649780445    5.34748055551329
C         5.44817484431776    3.66897681946532    6.39399940255969
H         6.11304721638106    4.28860920996467    6.95935137297259
C         4.21328174082753    3.92209095831684    5.90161535179964
H         3.60845122691112    4.80354622432159    5.94967459689561
C         6.97260192523226    1.69966199349707    6.40959048605549
H         7.11835141117053    1.74159420425535    7.48957699532830
H         7.83342708593910    2.15213190645838    5.91345903054858
H         6.87999948323779    0.65113532787162    6.10006070919706
C         2.52382960451204    2.56804753426915    4.63637840260544
H         1.89350518889619    3.44105743563285    4.82424805186206
H         2.06123863866220    1.67597956325322    5.07641168908359
C         2.69893797515532    2.36712723537518    3.14892764350688
C         3.14491802790453    3.40946916085675    2.34229163715763
C         3.36098698592367    3.24403867674019    0.97873498189025
C         3.12571121283219    2.00253646238565    0.39321741367607
C         2.67910414820535    0.94301938051188    1.17878297118075
C         2.48162275138685    1.13306333066172    2.54395635765587

