47
CSD_code = TESJUY | q = 1 | S = 0 | Stoichiometry = C15H25MnN5O(1+) | MND = 6
Mn        4.06461836818358    5.81904474147091    3.65640386456325
O         5.17575486712943    7.86926002775268    3.30174403183330
H         4.74907217736832    8.34771271402757    2.58212091508440
H         5.07807122578614    8.41485271671380    4.08944477075696
N         2.16169288094128    6.05021944536857    3.59594946496586
N         3.52572356554012    6.24706271682505    5.59731273576502
N         5.80565142841732    4.97556114403469    5.21675564725564
H         5.37462513315479    4.11776111664594    5.56566598644811
N         6.05134829818018    4.89437515872404    2.57908844690817
H         6.53090233887710    5.78447595013413    2.41267363474138
N         3.62166417730811    5.46248610964255    1.69509323207783
C         2.26418669365374    6.50535741560874    5.85576586843048
C         5.84196020626495    5.95846044465354    6.28966408696751
H         6.27425186229752    6.87871243874523    5.88386248574221
H         6.46171135166834    5.63401903762295    7.13878455381898
C         1.43083299027606    6.42738926640496    4.69109518808733
C         6.95199158759414    4.02986531389164    3.33467562682467
H         7.91949921205585    3.89412426471702    2.83148409530108
H         6.47546843172278    3.05087065304060    3.43747827038059
C         2.38698222345041    5.68017189200787    1.31074468326285
C         4.41189957676422    6.20441262034474    6.74699092682195
H         4.09588859185391    5.38819372927373    7.41065189240872
H         4.35980088450212    7.13724665099548    7.32160407454014
C         1.49873170902159    5.97253322140037    2.39708615407413
C         0.12424740296068    6.18773539894308    2.29920534546039
H        -0.37370917319453    6.08627256037408    1.34968327497640
C         1.73634736979902    6.79881519231845    7.22214347648407
H         1.91743034265751    5.95443499279686    7.88816666812248
H         0.67046477609390    6.99179208325660    7.19955005828269
H         2.23368992984345    7.66905132237272    7.65159949709395
C         4.60747137562722    5.17763881347675    0.67064709986222
H         5.03713743363887    6.12219112385773    0.30660917389725
H         4.17268560869908    4.64869352763414   -0.18246674260386
C         5.69639053750281    4.31433439320955    1.29109190010395
H         5.29554115551987    3.31325597534144    1.47401166784087
H         6.55995896110261    4.22712252545576    0.61577010253133
C        -0.60480551184640    6.52440872769562    3.42494666067154
H        -1.66867531397840    6.68456607831344    3.36312473951593
C         0.06094116841477    6.66792616179872    4.63071664085436
H        -0.48236226334856    6.96022875115808    5.51333278515738
C         1.93746410553810    5.68058694251089   -0.11887824890231
H         2.60565089172045    6.27924854812938   -0.73630810443614
H         0.93768880318891    6.08872596591032   -0.21141421733630
H         1.92556247128658    4.66472679903770   -0.51588814306401
C         7.13478063977203    4.66185387807697    4.70493694442307
H         7.70200905185430    4.00176536955686    5.37393016667413
H         7.68886045513632    5.59995607872830    4.60124861732914

