40
CSD_code = TESKIM | q = 0 | S = 0 | Stoichiometry = C17H18N2NiO2 | MND = 4
Ni        6.74860570881114    5.02689995025031   16.55906496387371
O         8.44701609573474    4.78425140330401   15.96766817358029
O        10.61333350641483    4.96890308348106   16.39728974715569
N         6.05489160113402    3.90484111868954   15.07247052110489
N         4.90352679933414    5.33842402195953   16.91109809264216
C         7.64090653250864    5.57560719965672   18.19788570182985
C         8.98535076748933    5.52259412174715   18.09641531197472
C         9.45455202996118    5.07842751790955   16.74499922848301
C         6.98455836525763    5.93193899156196   19.52274953323215
H         7.51511808408773    5.40880857651598   20.32374108239113
H         5.94907886907303    5.58324770176263   19.55665476764883
C         7.03334181612410    7.44006185294249   19.79089664412078
H         6.40684483088865    7.69922734000201   20.64309796491906
H         6.69763443427249    8.00325831800722   18.92174612132016
H         8.05105766915512    7.75090669870663   20.00537128563369
C        10.03259623471054    5.83290184454238   19.12788026694101
H        10.76426240657202    5.02129436363349   19.10367666047595
H         9.60765469363984    5.89069339272951   20.13054078540332
C        10.75438270641068    7.13583619288013   18.78143964969441
H        11.52526055146607    7.35005035267974   19.51929993609759
H        10.05688553425223    7.97050422262747   18.75076960341590
H        11.22145966571318    7.03946690483674   17.80542649757375
C         6.76358944575003    3.18231811542805   14.21540785048004
H         7.79668804012588    3.48085419750350   14.09063617677324
C         6.22114453866738    2.10894174679057   13.52593088430472
H         6.82633393244396    1.55083512950505   12.83000530759647
C         4.89714761276952    1.76632592415742   13.75724541719240
H         4.44841281339670    0.92442980345630   13.25168976338418
C         4.15519626048514    2.51949757822455   14.65051357641212
H         3.12961910604607    2.26088451870433   14.86020446309470
C         4.76303305415163    3.59828027307556   15.28787504314667
C         4.08570015886688    4.52509961573455   16.20023838091281
C         2.69954179250597    4.62949452048735   16.27168134709586
H         2.07850555107359    3.96146113483732   15.69722270492091
C         2.12544401509102    5.60852756668959   17.06069770526013
H         1.05273898085678    5.70012881461418   17.13285491735457
C         2.96703457694158    6.48287718525364   17.73131130282506
H         2.57225880325423    7.28720460834686   18.33080362024191
C         4.33591074562707    6.30833082145891   17.62930793079079
H         5.00168166893572    6.98276327530791   18.14459106870068

