79
CSD_code = TESNUD | q = -1 | S = 0 | Stoichiometry = C26H42Cl2NO6RuSi(1-) | MND = 6
Ru       -4.22509359604615    2.97283727785350    6.95783603025199
Cl       -5.71410034164025    4.21210110684589    5.56099178566890
Cl       -5.17630260445304    0.90438438710289    6.29330914423737
Si        1.87618131565943    3.07458921054803    7.15290611056838
O        -3.01421393329156    5.56022626365317    7.83496751105799
O        -2.49754354628376    2.68137616746828    4.54014865220315
O        -5.70125193609136    3.09195214380005    8.39968005109020
O         2.46326474246585    2.87915937607709    8.66116993707404
O         2.96523318882402    2.79507133342570    5.95562649782377
O         1.53682582073877    4.65194267930346    7.01443089216588
N        -3.15594842893319    1.76189822604826    8.28499309585510
C        -3.49178865985501    4.55921182690165    7.52607836049809
C        -3.12252222035127    2.80578565092699    5.49618360326117
C        -5.81271872996202    2.55143285884180    9.53797048933563
C        -4.78832819204304    1.73835115069694   10.12109474319242
C        -4.96089194626568    1.20282447157138   11.41411753964288
H        -4.15375108453437    0.59905115387997   11.80286123279359
C        -6.08801702716985    1.43248130790945   12.15319088467507
C        -7.10431059093483    2.21020008952095   11.55960526763104
H        -8.00118339978561    2.37406995333595   12.13474951475497
C        -7.01561124200708    2.75493147119788   10.30903698735089
C        -8.14354038819064    3.56788723074346    9.68682590673194
C        -8.59969556566576    2.88282372913244    8.39120567147544
H        -8.93238166718494    1.86595789455128    8.59629932917097
H        -7.78708203241667    2.84236421348314    7.67195380508845
H        -9.42150537374932    3.43786398033046    7.94166858298162
C        -9.36187806912939    3.69093311440657   10.61070740194448
H        -9.77842555253693    2.71328014685569   10.84697778222030
H       -10.13395209112287    4.27018435614660   10.10653742895339
H        -9.10729520932909    4.20605716611118   11.53582709539818
C        -7.64346672455899    4.98537132325074    9.37313320139535
H        -8.45989990082328    5.59269053360495    8.98581199181515
H        -6.85922691972973    4.95269776235142    8.62229395531057
H        -7.25057230222026    5.45861784250308   10.27289245229484
C        -6.30143591954578    0.89348768178421   13.56037328723722
C        -7.54371851125809   -0.00838876403889   13.57931370513397
H        -7.69941311306062   -0.42096958607953   14.57562027138847
H        -7.41745211748268   -0.83071930744190   12.87825513925022
H        -8.43555129696243    0.54345275934363   13.29582814413289
C        -6.50103762911591    2.06999063509082   14.52689526270796
H        -5.62821031556300    2.71958487929067   14.50859582828301
H        -6.64324593711454    1.70731421344033   15.54435459525952
H        -7.36905110764998    2.66240407821338   14.25126160339162
C        -5.11114124708965    0.06883882965262   14.05924072959199
H        -4.20532785495664    0.67029242934712   14.08507497963714
H        -4.94441817627901   -0.79631209639779   13.42183116723355
H        -5.30978692551461   -0.28801648441500   15.06928586406148
C        -3.58926936513698    1.39350139130909    9.44253441406663
H        -2.95443332456213    0.69305053004045    9.99982763929494
C        -1.89955332592455    1.21511434997314    7.83146802990660
H        -1.60992836333283    0.35208011171626    8.44882627094078
H        -2.03432548113605    0.86636753298695    6.80178836111680
C        -0.78477248311711    2.26730941109387    7.87743997245507
H        -0.49993791431932    2.44942788289641    8.91507583386655
H        -1.17421291784230    3.20268702362062    7.46994655485420
C         0.43875473255202    1.83291362012968    7.07580715555866
H         0.13595527265235    1.68118709879007    6.03833526764900
H         0.77126978832461    0.86102391391263    7.44528759708587
C         3.11423070829125    3.82570549249497    9.47243036035078
H         2.55241175687407    4.76398955014524    9.44760933254904
H         3.09597804841108    3.42267096260317   10.49110438360347
C         4.54741231890555    4.07103663513805    9.02180609382043
H         5.11445919876309    3.14401365472693    9.05728932219204
H         5.02235524280668    4.80602170477281    9.66684474379173
H         4.53981741639369    4.43672269875141    7.99890048779882
C         3.47968270044722    1.56805218341439    5.51013584272750
H         2.65290575973960    0.89624434658119    5.25284058026360
H         4.05041493811670    1.78549530214774    4.60020645822647
C         4.37390099063505    0.90735137713277    6.55007401043350
H         5.21414328137022    1.55640064033292    6.78259149391075
H         4.74731632337360   -0.04196426896412    6.17456355813007
H         3.80419451772057    0.74127021581306    7.45984022720053
C         1.20763854306060    5.40479529968807    5.86979337389185
H         1.91560703704852    5.16446399553901    5.06940202810851
H         1.33744848944737    6.45401653242044    6.15716771961516
C        -0.21661617068722    5.16234020601557    5.39818144846339
H        -0.34064820118984    4.12667188552641    5.09640198657979
H        -0.44062929235852    5.80506979178107    4.55118173335890
H        -0.92268586514313    5.37840225934188    6.19528420487446

