59
CSD_code = TESPEP | q = 0 | S = 0 | Stoichiometry = C12H34Cl2N2O5RuS2Si | MND = 6
Ru        2.84749866516850    0.96394511281249    4.27680456724923
S         4.81935003420881    2.07322531138000    4.36139350631348
S         3.20703177970635    0.55500217752348    2.09279486909608
Cl        3.88963548590819   -1.05992922890559    4.88747827957625
Cl        1.68100351680191    2.91617509085519    3.71651029267145
Si       -0.33173543033845   -2.92340050114295    1.61057033725038
O         1.13568670199610   -3.10656690319552    2.30663152587331
O        -1.10010581855796   -4.34633113248169    1.40213039456517
O         0.01765745695092   -2.06195357878974    0.27374264551448
O         5.01044132577756    2.44373988607651    5.76630766239412
O         4.38038186901836    1.32133306435438    1.67367301745092
N         2.51327922204144    1.48370677076014    6.31475421871267
H         3.39402938538855    1.49922670920411    6.83719916883458
H         2.16354339645430    2.44725683829889    6.27362821642661
N         1.00764127743684   -0.11257433475693    4.62762265099356
H         1.38215089480441   -1.04609065445892    4.84372718051685
C         1.51100726477349    0.59874819116894    6.89719603884572
H         1.09695905127222    0.99652902751304    7.83235957148459
H         1.98403678075532   -0.36945457580050    7.09639226073740
C         0.40729294631227    0.42827094076518    5.85387750586713
H        -0.38443479876870   -0.22688698606769    6.23593034214086
H        -0.01736887412341    1.40777857668511    5.60666865419851
C         0.04784718370227   -0.24863137843523    3.53595212249559
H         0.59931267763594   -0.60624277775721    2.66638910371565
H        -0.35317148067377    0.74309256435342    3.31047876077586
C        -1.08017164078792   -1.24596658958629    3.82576495540036
H        -1.89909550379687   -0.75142706513808    4.35237373083512
H        -0.69772402657266   -2.03955982868080    4.47232302592213
C        -1.60849013387691   -1.86900680444241    2.53527190894476
H        -1.96142323404976   -1.07183103338738    1.88380091648838
H        -2.47412188181888   -2.48496555735162    2.77221756446052
C         1.58210789046677   -3.74924204203711    3.48011602498600
H         0.75538474545594   -3.96607457879455    4.15637937960295
H         2.31090127649509   -3.09751008457703    3.97001845435686
H         2.07061524473174   -4.68776381421073    3.21137478401887
C        -0.62910750857770   -5.55496373228167    0.85983415253463
H        -0.75589839247373   -5.55298459579071   -0.22520459000638
H        -1.21941405493310   -6.36554114640113    1.28902968992766
H         0.42620714455975   -5.71149534566967    1.09131115693893
C         0.77333647395479   -2.43166228736274   -0.85368606569093
H         1.74599428829522   -2.82985401322828   -0.56014814380153
H         0.91085102428888   -1.53975368332784   -1.46560266526636
H         0.24107640158275   -3.18769401642620   -1.43433912066391
C         6.35209369864255    1.21855691324610    3.88864682573719
H         7.18246581912524    1.82052383314219    4.23727792372258
H         6.35398167284897    1.09670318879824    2.81356183755155
H         6.34657330646480    0.25552998064744    4.38927734435546
C         5.05456131648495    3.61208151686513    3.42997620073185
H         4.18500524344594    4.23258952672744    3.62162951175021
H         5.11843538484206    3.36089348699561    2.37957805342754
H         5.95425219038009    4.08864589273314    3.79962742999025
C         1.92716076089511    0.97263383223730    0.86142088255552
H         1.41281987792753    1.85691163760313    1.22500093110459
H         1.23626452851820    0.14872920998532    0.73483336722164
H         2.45050477350214    1.19756656114707   -0.06056047809621
C         3.54763974971252   -1.14224291121766    1.54060807191106
H         3.88071999025468   -1.09407405283112    0.51072524593293
H         2.65240292654857   -1.74029226761388    1.65185169203247
H         4.33492013381233   -1.52992833972663    2.17929710738610

