59
CSD_code = TESPIT | q = 0 | S = 0 | Stoichiometry = C16H34Cl2N2O3RuSi | MND = 8
Ru        4.47183537800720    3.32190897492115    8.75403047146817
Cl        2.99771862024822    3.11989040289232   10.66802839169940
Cl        5.08694212361895    3.23495924475047    6.39185311335092
Si        0.38199159892429    7.25097305968833    4.89895120376036
O        -1.08926320321973    6.56458702978925    4.84521883383224
O         0.22319929876878    8.68564988937541    5.63689496437469
O         0.85899540681017    7.29786661303906    3.33629930708586
N         3.42491118194731    1.52160820360002    8.24951044219402
H         4.00094646538891    0.75392935905045    7.90032232173578
H         3.00134241890223    1.24817144078600    9.14482094323391
N         2.71126526228437    4.19161652297089    7.84072875794808
H         3.09260412875560    4.36254445076039    6.90065177762971
C         2.36615289380015    1.83686065083111    7.28900485802399
H         1.62093487864712    1.03255883252183    7.22832752548706
H         2.82906776681039    1.97215701457406    6.30553072555060
C         1.69714403962635    3.13793510280596    7.72496265832938
H         0.91993254472552    3.40750851500177    7.00042952486702
H         1.23923718207849    3.00653122642211    8.71157741218502
C         2.15383892654177    5.44834564717712    8.34105200814598
H         2.97887795766669    6.15647533049857    8.45667440109617
H         1.72093926784005    5.25518108771687    9.32714550187403
C         1.10522610145590    6.08758500325715    7.42188458658820
H         0.20558849427572    5.47361793738249    7.37630672936818
H         0.81634138828658    7.04133489093669    7.86242602390517
C         1.63140446877606    6.33990122413487    6.00912993989883
H         1.88816237475206    5.39242015372780    5.52980513449079
H         2.55705019013457    6.91273816635329    6.07830675757259
C        -1.49371944754779    5.42163405249041    4.13838590111422
H        -1.10672518342059    5.43978418412818    3.11954780654588
H        -2.58378251009103    5.41486801916524    4.11831552394800
H        -1.13603288836682    4.51848026470272    4.63892026537452
C        -0.74929064722497    9.67897488228069    5.42856114730998
H        -0.62697288060278   10.13706041227827    4.44483586754470
H        -0.61659814824114   10.43500826086320    6.20290281204261
H        -1.74982212121589    9.25143530127707    5.49703813901827
C         2.06355041152074    7.77579589497033    2.79750760955765
H         2.28340610836376    8.78087194509933    3.16229423174876
H         1.95329154792596    7.79762057533758    1.71294737781322
H         2.89058534672970    7.11486887356963    3.06460376039518
C         5.22320701117262    5.01406944092920    9.95237702024557
H         4.37494458844046    5.63251873752923   10.24539231539903
C         5.69702432295342    5.13324520057336    8.65377346947734
H         5.22476000690790    5.86637378895800    7.99385567722387
C         7.12169013201799    4.82026422679833    8.25258369484380
H         7.78166935377202    5.60652513381416    8.63727743843415
H         7.17436651501030    4.85347303459962    7.16327996095339
C         7.60595617926247    3.43782858620263    8.72846295856376
H         8.30138012362753    3.04137028533520    7.98655237102883
H         8.15046007001624    3.52620458128233    9.67103614557550
C         6.47745194243628    2.44385124927495    8.91284220999672
H         6.52523260572272    1.58583064409266    8.23993798715248
C         5.81695941931714    2.27234207110479   10.12037567167395
H         5.41159297465832    1.28110175820495   10.34558707259802
C         6.10664231981462    3.08468468678870   11.36139157448883
H         7.06659815469686    2.76498854527818   11.78323409675448
H         5.33292350541484    2.85418686075731   12.09540357840962
C         6.11207049896183    4.60307760817442   11.10968700140980
H         5.76120188291815    5.10462763111946   12.01330551848911
H         7.12709164898121    4.95517728804279   10.91430947937243

