129
CSD_code = TESQUE | q = 1 | S = 0 | Stoichiometry = C64H52AgP4S8(1+) | MND = 4
Ag       15.90441657069368    5.74001306067692    5.77225776913443
P        17.79844015570106    4.71075781400095    4.53905628084750
S        14.78068764828587   10.18606362462065    7.96521066481030
S        16.26881657164614    8.60834063973459   10.01001454402535
S        14.73549988457654   12.73133183931009    9.97766530831319
P        14.87310917336407    3.43421744667984    5.61204169537440
S        18.20659484285894    2.07473966890826    3.05968027937468
P        16.42403581718046    6.10663036337248    8.24346526405778
P        14.78010128863988    7.91945120026408    5.91659871634547
S        16.39821108788907   -1.90710772798903    2.58580891108254
S        16.21832264907173   11.17193962193692   12.00308037594710
S        18.92687911745270   -0.73857955609508    1.59971239018826
S        15.66412691420327    0.88779094098113    4.05870038997540
C        17.19771020617057    3.05843055942507    4.10591119326230
C        15.81770643478094   12.84146124522282   12.40111574860485
C        12.24525670622756    8.03332109631218    4.84090399726604
H        12.77190768821350    8.15567991199186    3.90240561657596
C        15.14599998310194   13.54653871559393   11.48525020876601
C        12.30734121373007    7.77357722248690    7.23810670795735
H        12.86801775340654    7.68991983180061    8.15960186273171
C        11.29745744174269    4.01168265209112    3.82977964950841
H        10.74589527052487    4.87029573730862    3.47730607209896
C        14.94874689544191    2.42169599175218    7.11869446553629
C        17.44999499886488   -2.94662828298234    1.62702973878236
C        14.42533561626769   10.48353125553615    4.78140610636979
H        13.51152074630260   10.56109096017572    5.35350563448106
C        10.86605793032311    7.96149246263527    4.87001553381590
H        10.30411461719559    8.03397825749153    3.95073116556159
C        15.48931388463738   11.20532195973810   10.40677205694056
C        17.45177934825725   -0.50472032920762    2.52203782516507
C        16.00647453915418   11.42335854116942    3.23579436908509
H        16.31805558413354   12.24242716781226    2.60563938550396
C        13.81032804267790    1.97625013902728    7.78056718021421
H        12.83241889320186    2.14761682766652    7.35337429155335
C        16.99581112429951   -4.34411774265048    1.37144338175508
H        16.83570922090290   -4.50322480008102    0.30527858331994
H        16.06514124868098   -4.53901659314584    1.89682428675846
H        17.74762389956678   -5.05616121026664    1.70967093687535
C        16.03282347817551    2.53199803908002    4.54250138920231
C        14.02646547271785    5.02578228506138    9.01008010988834
H        13.80677528680592    5.09751703332637    7.94700295354814
C        15.96076925921968    7.84796411562929    8.45977107504469
C        16.20347806127197    2.24101372072581    7.69704671458591
H        17.08301873281112    2.62947996779331    7.19564525721189
C        19.59183284723231    3.11144447216402    6.06138536577022
H        18.99593010098198    2.24329700820259    5.81744546002468
C        12.97033669306656    7.95903805303490    6.02925615087713
C        15.19838866068458    9.32794057738513    4.85080229212872
C        15.27765419018102    5.41563624240193    9.47804348005509
C        15.50612895216555   10.14616401428565    9.57864315598975
C        17.15338765427203    0.65552427697837    3.13248489661741
C        10.92606804507539    7.70147350195830    7.25722806990029
H        10.41160883969434    7.57018261247855    8.19735909832323
C        18.05876109819128    6.01870549647479    9.01612323944803
C        15.26639677612281    8.55404807552668    7.54269155815670
C        18.95671200620513    7.07852346507350    8.94030039916152
H        18.66059324504478    8.00880069060233    8.47500971862110
C        12.71289215880793    1.80025188461961    4.75512384132763
H        13.25437241903385    0.94174928218874    5.12572757638521
C        20.22597791826266    6.94052088312369    9.47105843156673
H        20.91369766770033    7.77221245937121    9.43588160067244
C        18.46540553008772    4.80063222246564    9.55689178992850
H        17.77071834018348    3.97087283256797    9.57593399317985
C        14.72165905193961   14.96773430932641   11.64235637699340
H        14.11325670032603   15.08610950205201   12.53819337131384
H        14.14267065086426   15.28493517326628   10.77965125938853
H        15.59222769634099   15.61629266555537   11.73762007109379
C        20.61492152781400    5.74199827104178   10.04580464828144
H        21.60472765936336    5.64130521390891   10.46436959153523
C        18.59319030277461   -2.41740106141271    1.17976508761726
C        12.54104865801255    4.18088468360173    4.40942449760099
H        12.97147567648058    5.17379694138838    4.51417920308671
C        13.93577777774489    1.31796774573143    8.99095788301985
H        13.05212174481449    0.96546129955440    9.50129833501009
C        19.26400800254088    4.36204852367101    5.55250906642803
C        18.50200994527340    5.23733760100570    2.94920532031348
C        19.73835582022756    4.66864579489817   10.07620348738356
H        20.04828305298053    3.72933156726021   10.50939978266356
C        14.60911573537904    4.86255254886019   11.71060995566328
H        14.83230508734344    4.80388773213182   12.76524430427797
C        20.70411136146770    2.97396928998897    6.87384276625882
H        20.96235284866911    2.00003428153070    7.26205695702355
C        21.15548675596767    5.32443032418925    6.68287503011096
H        21.76579221123701    6.18189303539926    6.92210287020847
C        16.77544658351548   10.27252528410265    3.30288885817941
H        17.68503052697539   10.19106274433027    2.72657745896617
C        16.25129307730360   13.36004408000957   13.73069025616847
H        16.90779165377648   14.22072071457303   13.60716540375120
H        16.78377683718596   12.58865862406934   14.27979534889347
H        15.38816238734552   13.67548339553558   14.31614897617780
C        15.56653029828660    5.34409793728866   10.83657614838091
H        16.52968852465506    5.66553106873167   11.20608100264929
C        14.83638325820051   11.52681529310841    3.97298179580505
H        14.24112425281351   12.42560293660204    3.91790361748709
C        13.25564447434533    3.07803615439739    4.87076275347111
C        16.37219119970165    9.22500176413758    4.10975369737857
H        16.96215268239694    8.31369343149577    4.17350518692903
C        17.67762249150207    5.99800459038301    2.12464416413543
H        16.67959364595765    6.25806719448247    2.46609297608272
C        11.47243284701435    1.63838791164056    4.16701424778319
H        11.05337031291006    0.64817817186903    4.07094130056962
C        19.40981424025240    6.06855748245880    0.47331803392326
H        19.76731479205017    6.39183115186825   -0.49249114045303
C        10.20546188848727    7.79791954271608    6.07817604945891
H         9.12771846350319    7.74379078629961    6.09961479598888
C        15.18575512676987    1.11312952494662    9.55001697613941
H        15.27710241652777    0.59669550831350   10.49329861663641
C        18.13199708504043    6.41118998104164    0.88648726216469
H        17.49322801027337    7.00033054827645    0.24551899890280
C        20.23185594211196    5.31367781487166    1.29571978403143
H        21.22598072686193    5.04845915971278    0.96908411632313
C        16.32026805503036    1.57719843940981    8.90240929619187
H        17.29563194476892    1.42051634323888    9.34000046281117
C        21.48690148334777    4.07336028974543    7.18064046863867
H        22.35773265281487    3.95666564090864    7.80721732813438
C        10.76565277582218    2.73867478941123    3.70479938905858
H         9.79703068422529    2.60143127714411    3.24869355687147
C        13.07203931371255    4.55457442493862    9.89077855585514
H        12.10090328491685    4.25713459624075    9.52430146580692
C        20.04116055601212    5.47190296609462    5.88268229269465
H        19.76414218309246    6.44505696389559    5.49376019118567
C        19.78542875154736    4.89525785974123    2.53569160468819
H        20.42495642526927    4.30788291047771    3.17928961836005
C        13.36625028726657    4.46729452078062   11.24181206284889
H        12.62395316718799    4.09659696572115   11.93223924557713
C        19.60526165930534   -3.13889518415620    0.35518023876471
H        20.01473991410548   -3.98366756918668    0.90856676233294
H        20.41813915111944   -2.46979935807432    0.08741021545192
H        19.14929125402777   -3.52205784241219   -0.55690551120485

