57
CSD_code = TESSEQ | q = 1 | S = 0 | Stoichiometry = C20H26CdN3O7(1+) | MND = 8
Cd       -1.88730558207169   -0.06492398877970   -4.31697067865246
O        -1.38213492439762    0.57697885282316   -1.96544959564327
O        -0.71017788982175   -1.36126264336713   -6.31839468514036
O        -2.81164866360454    0.49249015919863   -6.63770070573310
O        -3.24647524253641   -1.71401214894695   -4.69780524062860
O        -3.86596426857938   -0.05325786353800   -3.52559279638383
O        -5.29845964718397   -1.48224932073268   -4.18658246432893
O         0.34770930461574    0.83011721659234   -4.85892120107757
H         0.56558514839050    0.22757417449525   -5.58222054677924
H         1.03929784570478    0.73809567183752   -4.19531547970917
N        -0.64173672848272   -2.00600840754566   -3.51455509412691
H        -1.47757493835376   -2.59509208389323   -3.45847946327919
N        -2.35503569515259    2.21476243066914   -4.43303809247755
H        -3.33779148214468    2.18139619404310   -4.14697679120530
N        -4.17338299292428   -1.09447139088114   -4.14293698820893
C        -2.23847520893675    2.87627529916812   -2.10653615866553
C        -2.10218516346794    1.64349239710578   -1.48520880967985
C        -2.99221452260630    3.82705692641456   -1.43025408257444
H        -3.12344345822357    4.80271495575080   -1.87334180973639
C        -3.58199041302223    3.55816878622620   -0.19911284698898
H        -4.15465633029083    4.33204090503900    0.28691398835945
C        -3.46110976462166    2.31892063441161    0.39867875247581
H        -3.93434350432344    2.10497649156769    1.34296617296385
C        -2.70986446797595    1.34988061119426   -0.25382437560595
C        -2.35344626543120   -0.01656504998647    0.03387893916122
C        -2.63225855757107   -0.90210003243081    1.06685082949830
H        -3.25931091382509   -0.60543803266145    1.89154418444497
C        -2.08216515402069   -2.16784324859815    1.00453830599305
H        -2.28736342950476   -2.87879557126718    1.78899945871289
C        -1.25145449825307   -2.54425865369942   -0.04602402302823
H        -0.81875871785116   -3.53323877782792   -0.04527467453301
C        -0.94824289354705   -1.67648214206038   -1.08787837337445
C        -1.53895163154426   -0.42165602818012   -1.03655517103196
C         0.00259279648791   -2.04319772824787   -2.19169260507972
H         0.84099102944156   -1.33556865120807   -2.19888506632189
H         0.40781141820453   -3.04578584290658   -1.99260990988512
C         0.23200962373485   -2.61849229967129   -4.51932509912557
H         0.51521584240282   -3.63983844226130   -4.22609118246923
H         1.14839491170718   -2.02419037918754   -4.59822906793254
C        -0.45718628303945   -2.68516080803574   -5.87515264952525
H         0.18768140579878   -3.20123404997538   -6.60001172876906
H        -1.40461232346983   -3.23180507004527   -5.78567410595763
C        -1.53051329545174   -1.31775534096832   -7.47459992140569
H        -2.42863429529787   -1.92653235707625   -7.31645401967209
H        -0.97556331490483   -1.69531132916041   -8.34340436357907
C        -1.94836854655961    0.12585325930898   -7.70172207428935
H        -1.06133804627564    0.77284597996433   -7.72525634021126
H        -2.48248056382153    0.20591234053204   -8.65735681149263
C        -3.22679044754397    1.84782913391755   -6.67134644079221
H        -4.24622375082823    1.86225800375796   -6.26805424378182
H        -3.25235858066770    2.21601290282287   -7.70239297926511
C        -2.32282749051774    2.72398788809609   -5.80379221757360
H        -2.68007553530544    3.76223575154161   -5.85620632468879
H        -1.28945280903995    2.69043696635576   -6.16286170573911
C        -1.67932014536514    3.11472757633062   -3.48007019381632
H        -1.85146254934467    4.16251064747942   -3.76002067868583
H        -0.60335839878645    2.91887552649127   -3.51191075296244

