39
CSD_code = TESVOF | q = 0 | S = 0 | Stoichiometry = C16H16ClCuN4O | MND = 4
Cu        4.07200959748774    7.80009219959531    2.58536515395460
Cl        6.01063237700834    8.68606639619596    3.10226737272049
O         8.80994656236164    6.35833352064304    1.28677063124648
N         4.35354862490768    5.79519721245760    2.17629749737357
N         6.61329988890038    6.02808365862781    1.73646211463216
H         6.54665258180804    7.00189253022998    2.11775273315389
N         2.32725060690455    6.76610143992530    3.70685686844989
N         2.49964796605054    8.82041292960222    1.94333380141819
C         2.00864532815166    5.73475397987674    2.73344595875909
H         1.54368146993203    6.21341229603497    1.86500409740629
H         1.30024705578957    4.99297635282431    3.13767711792781
C         3.26188850774222    5.04256123826826    2.26035914401572
C         3.25796994649964    3.69704110654791    1.91090115875269
H         2.35191354459307    3.11801375075031    1.99409700296500
C         4.42994404861957    3.12254942049919    1.45590846297270
H         4.46168485127872    2.08128674841327    1.17076094656402
C         5.58686228931593    3.89362712989560    1.37743152667284
C         6.85156212317530    3.39635990151796    0.93273397301497
H         6.91176306914454    2.35990027008097    0.63028843349390
C         7.92609857160443    4.20244541178419    0.89189380216111
H         8.89094757389262    3.85511288232149    0.55700029797518
C         7.86473939940715    5.60302494902686    1.30712321388724
C         5.51166528377893    5.25623418849633    1.76981395651557
C         2.66529865480940    6.19370691075988    4.99490587207500
H         3.03820272917376    6.97520559609043    5.65348359763321
H         3.45638474902679    5.45904279450072    4.85944573883361
H         1.80276593749446    5.70273817398055    5.46949338365315
C         1.30922110029307    7.79341368864402    3.79742209510722
H         1.51688367212157    8.39118104870527    4.69139600825402
H         0.29571095770086    7.37147902684232    3.90677119173667
C         1.34785241380383    8.72746737681145    2.61389354853656
C         0.23950008092256    9.48617806167375    2.26720482649987
H        -0.67818016873205    9.38387682254684    2.82645630477505
C         0.32888263291340   10.37318368844815    1.20609187931681
H        -0.51922624499025   10.97747134871192    0.92281633074441
C         1.53155667442547   10.46507120541419    0.51835965088440
H         1.64746565235247   11.14204502971851   -0.31243015376052
C         2.58590733089876    9.66762720892084    0.91865292439959
H         3.54137255943167    9.70243250461371    0.41569153527713

