48
CSD_code = TESVIZ | q = 0 | S = 0 | Stoichiometry = C21H19ClCuN5O | MND = 5
Cl        4.58117811579308    2.89278701314182   10.22018409642126
Cu        4.43977798151998    5.16200871320970   10.62022093761025
O         7.23040418086952    2.44570392766506    7.38311552822739
N         5.17257325178101    6.21706202061129    8.97573324287855
N         6.23034438523418    4.33730993541728    8.13266126358781
H         5.69620818040262    3.76195274729904    8.83051124376656
N         2.39161029925115    5.33812123496357   10.98750961725105
N         5.70011139669733    5.45822521573857   12.23294174559736
N         4.10094143907964    7.44697108571484   11.23318038654034
C         3.95823628537268    8.07556298989514    9.93901565743460
H         4.04532769904299    9.17423465874813    9.99246813584693
H         2.96050245393772    7.83138229437296    9.56068899433598
C         4.96694996028257    7.52988224515216    8.95862482979709
C         5.61916825337889    8.37775148928736    8.06984352116929
H         5.42317048174793    9.43851291139813    8.08970175401575
C         6.50811167053009    7.83814978356336    7.16000354095802
H         7.02697620363882    8.46611998168668    6.45064356300027
C         6.73442041717407    6.46428533182980    7.16080981516167
C         7.63080681453279    5.80712792802338    6.26254146723279
H         8.16271302418824    6.41357329803575    5.54205680268968
C         7.80193856298042    4.47553498675361    6.32131503857276
H         8.47226667868404    3.95264359569721    5.65720583108625
C         7.09282209435894    3.64550146201360    7.29298126645291
C         6.03391577520929    5.66826534011239    8.10675772145725
C         2.89556275032709    7.45475956715169   12.03111657646412
H         2.43929048025342    8.45742251389767   12.09776092867629
H         3.16289586536828    7.13607639798182   13.04400700728429
C         1.89411133605008    6.46383494440193   11.49022816668619
C         0.52762748036557    6.69857224455793   11.54078353520677
H         0.14880379887129    7.62112876321105   11.95491402387507
C        -0.33753435941608    5.72830088789653   11.05706543588856
H        -1.40553631464557    5.88658606057254   11.08546639029623
C         0.19400012442101    4.55747031319499   10.53946263416137
H        -0.44384116596473    3.77752652141709   10.15590190759765
C         1.57099045846759    4.40705068109924   10.52489977062820
H         2.04748455422972    3.51514439001227   10.14116334117056
C         5.29579412787075    7.81898397895763   11.95938611168233
H         5.14818499337817    8.71246872064774   12.58821101783768
H         6.07804347794941    8.04400309245108   11.22777837986426
C         5.77579983187508    6.65977853548638   12.79968468558671
C         6.29234133663782    6.83361945155222   14.07468889234068
H         6.34371248323423    7.81976783642542   14.51198014211690
C         6.74521048961255    5.72275064327553   14.77203734682928
H         7.15095906151005    5.83140616933532   15.76703020720852
C         6.66677755968577    4.47757441707546   14.16826593083842
H         7.01152471619654    3.59019094666861   14.67415106264447
C         6.13428986697831    4.39431174203454   12.89204235640369
H         6.04513144105559    3.45250099036432   12.36785814761956

