46
CSD_code = TESXOH | q = 1 | S = 0 | Stoichiometry = C15H20N4O6Y(1+) | MND = 9
Y         9.35665044535978    7.86890802984641    8.63766417096594
O         8.08306452701410    7.16041607120842   10.50055712919917
O         7.29848678418875    7.00752304974371    8.47280242448930
O        10.69166247366588    9.80286101635922    8.71552257025216
O        11.46010418959076    7.97977941100297    7.80155743169208
O        10.69990774130619    8.03391088638449   10.85599071193157
H        11.28673696253536    8.78872184933194   10.99954151823891
H        10.15645504069941    7.93586206545044   11.65135991279318
O         8.14878977277151    9.83051411481769    9.85049213005789
H         7.69436625455639    9.57586614628375   10.66617184901631
H         8.77608896584918   10.53314985561559   10.07594569338977
N        10.06882288848325    5.51123156971626    8.87856274886175
N         9.40064433704793    6.58040323390379    6.52756026744318
N         8.55942831936331    9.13403223976418    6.67048297257597
N         9.86049739065020    5.34265128495405    6.57169988013100
H         9.97975402827286    4.79969433649685    5.71518338325992
C        10.39799845016375    4.94949089410922   10.04440559390344
H        10.23561143190145    5.56026452798826   10.92184514210183
C        10.90048980136630    3.66699210939795   10.15898701226724
H        11.15037785477580    3.26501641769155   11.12672057934319
C        11.07551410049730    2.91144993119664    9.00506500114154
H        11.46855201236801    1.90805142858455    9.05511743954429
C        10.73101400202570    3.46795938976190    7.79116369311223
H        10.84348501155643    2.91628258178631    6.87099462197587
C        10.22924927410175    4.77293329536890    7.77265357228566
C         9.05647061888944    7.14615800538255    5.43380631339406
H         9.11374506596950    6.64338067513060    4.46645714218042
C         8.57070490538050    8.51292167273780    5.47411740240301
C         8.14251855522119    9.14253796633073    4.30361914928967
H         8.16805954884547    8.60863741354681    3.36633914722071
C         7.68665528214810   10.44715494223175    4.36466866230958
H         7.34956003460177   10.95462826294894    3.47396488986014
C         7.67434372925404   11.08250339097576    5.59620268517894
H         7.32845927222872   12.09872460711506    5.69426828885028
C         8.11813540908386   10.38601085202873    6.71278384219570
H         8.12018054441542   10.85972904976909    7.68519243424175
C        11.60760878136449    9.19535329891502    8.09767376747581
C        12.87512200765999    9.91635036441116    7.72086852282141
H        12.89869547862664   10.04214558821187    6.64071238935541
H        13.73450467465366    9.31527071837181    8.00512717111739
H        12.91325353524045   10.89005399855498    8.19879537140837
C         7.16492245328176    6.81000320402572    9.71028369316277
C         5.91095019283120    6.16771705368190   10.24093709015677
H         5.06291868691071    6.81340280155727   10.02498260270602
H         5.99160941159304    6.00669102180869   11.31122163005976
H         5.74562975169013    5.22315937549941    9.72963035463979

