100
CSD_code = TESYAR | q = 0 | S = 0 | Stoichiometry = C39H54CoN3S3 | MND = 6
Co        1.65523985849939   15.84251560328630    6.54344406896606
S         3.03794720193776   14.43376279215642    5.45481270045875
S         3.02751608891189   17.49104878733909    5.85144760088450
S         3.04715490309535   15.62227260725944    8.30216033695826
N         0.34994997929520   14.35344039409374    7.19847889993816
N         0.32860396271168   16.01643824075785    4.94270733524420
N         0.33463066252103   17.13851853173280    7.50883962472865
C        -0.68439655930633   14.11717685079337    6.17327267383467
C        -0.25125014229650   14.67387791935106    4.81546069326838
C        -0.70965977940875   17.01387727407870    5.26443353444740
C        -0.26596047555146   17.91557293807185    6.41777512613290
C        -0.68931590115074   16.35641302346918    8.22743624372942
C        -0.23771642905277   14.90808026712236    8.42413380944250
C         1.03658565269618   13.09140997487057    7.54708896897734
C         0.99905956191172   16.35529050365071    3.66920479640177
C         1.01297567835088   18.07812756877116    8.42678347961837
C         2.38044933741900   12.81765567821689    5.41654762451891
C         2.81014102258889   12.00765454219551    4.36585913283701
C         2.38264845731980   10.69847487369191    4.20959767662951
C         1.47361634962203   10.20276175627577    5.13869590701165
C         1.04122540627909   10.99553363703254    6.18682396026778
C         1.48526889897096   12.29716562312335    6.35691102976652
C         2.33917981140421   18.34122026971304    4.49185859393027
C         2.75129429032614   19.66278445300879    4.32423681318119
C         2.29346155585850   20.46165848040697    3.28825388471557
C         1.37620812862809   19.90477741307459    2.40289963292136
C         0.96299823850095   18.59313631565790    2.55554593459083
C         1.43390621594557   17.78780780792329    3.58019847043562
C         2.37957266158672   16.38366919537480    9.72341397268180
C         2.81512475081299   15.87943893802878   10.94840539290134
C         2.37927221187773   16.38723468670450   12.16217737569998
C         1.45732441857550   17.42851789706039   12.13068200727518
C         1.01974602393182   17.93981060128371   10.92183673058168
C         1.47071535792844   17.44691862689529    9.70776291309019
C         2.91163669745916    9.87771495309109    3.04414527594414
C         2.34482479411830    8.45557430187900    3.02034088055743
C         2.52851561225626   10.56934258581756    1.72841120026696
C         4.43917685523674    9.78307512532277    3.15594272568188
C         2.80061653253239   21.89030203224415    3.17209159223488
C         2.45147530377449   22.65416966636893    4.45706684351806
C         2.18362909921258   22.63985863161619    1.98815252035443
C         4.32306111926103   21.86164491949020    2.98220661378460
C         2.91555482204211   15.78962010712748   13.45324118971435
C         4.43933269120078   15.96826932783805   13.48584481281103
C         2.32801043115374   16.45723706767577   14.69956916585802
C         2.56608854219087   14.29564348964098   13.49969525229923
H        -0.87238039910513   13.04441418585752    6.06303087824948
H        -1.62192235951691   14.58057387094370    6.48806764862927
H        -1.10926147515177   14.68321980921104    4.12649494954975
H         0.51387185248923   14.01918367923991    4.39425736309250
H        -1.63896598024024   16.50205397425486    5.52338952639743
H        -0.91652984660268   17.64280743978457    4.39268657283276
H         0.48924979244831   18.61244179361863    6.04978130609835
H        -1.12255255436862   18.50224599758377    6.78249110015613
H        -1.62784126222148   16.38506740979647    7.66971373219888
H        -0.88194874496853   16.79535597663938    9.21158639947767
H        -1.08795815099429   14.29579518924640    8.76049742448774
H         0.52755547033808   14.88068764139344    9.20199893033036
H         1.91160980648252   13.35653213654668    8.15216210906705
H         0.36321826064586   12.47041218333161    8.15541199336988
H         1.87864486184319   15.70637486434197    3.58448621419825
H         0.31853096381990   16.13717232889957    2.83351910031527
H         0.33107515159725   18.90779453987589    8.66296838712639
H         1.88254064774443   18.47959832128283    7.89318719593841
H         3.50990353708843   12.44605092126886    3.67144517158513
H         1.09449215676317    9.19719533982080    5.06674378150047
H         0.34693278834334   10.58025321336142    6.90650612666892
H         3.46057704136468   20.04357430308721    5.04254468601348
H         0.97517218169445   20.47606631357769    1.58259016133643
H         0.26133444429791   18.17823705685311    1.84281405222346
H         3.52596364447835   15.06857053282654   10.91301026862357
H         1.07185290785917   17.86022520609859   13.03904779176472
H         0.31525491844075   18.76208577422198   10.92467795650541
H         2.60712628484585    7.91592981910045    3.92730357637902
H         2.76211626019753    7.91336268562060    2.17408234047045
H         1.26249868058577    8.46586765296835    2.91163346358468
H         2.95617162872707   11.56598009709801    1.66868969024335
H         1.44630613928220   10.65569564023663    1.64943140671032
H         2.89104834486768    9.99057341716961    0.88141026971022
H         4.89863078178303   10.76647977876125    3.12299816738975
H         4.83968017763532    9.18962166952372    2.33652366945334
H         4.71753688155608    9.30946581503369    4.09499151009589
H         1.37396413657312   22.65918902357324    4.61132428386051
H         2.79436142457471   23.68426002610558    4.38539461400839
H         2.91895099597830   22.19928947237884    5.32548135799723
H         1.10245048205062   22.70780598903525    2.08737884404256
H         2.42548338560929   22.15090634513384    1.04743236078821
H         2.58212762954068   23.65190287346916    1.95273854376229
H         4.81550256049083   21.38046363497118    3.82207349672917
H         4.70960349664413   22.87477896005805    2.89168428137911
H         4.57775544435524   21.31168142712919    2.07870674759407
H         4.69392160547179   17.02477435758979   13.43476672580186
H         4.91285305221639   15.46465176877529   12.64827444676927
H         4.84619332450008   15.55797343059834   14.40785917923384
H         2.57070024145431   17.51694193637182   14.72581607991469
H         2.74775117448660   15.99430841157580   15.59050362964727
H         1.24739429928763   16.33761957582253   14.73636195594574
H         1.48691612590535   14.15964608249346   13.45779872190579
H         2.93377884471313   13.85356035218482   14.42336203216331
H         3.01061704120847   13.76088347325771   12.66537275746274

