29
CSD_code = TETCAW | q = 0 | S = 0 | Stoichiometry = C13H8N2O3Se2W | MND = 7
W         2.80052274437330    3.54498952398436    2.39782553862342
Se        0.27229663537123    2.99602565624032    1.68320446259274
Se        4.55404732908146    5.36492593754108    3.27461145188243
C         4.47267679254371    2.54236990678466    2.01071643898757
O         5.45627089266674    1.91351249994602    1.95383710181951
C         3.45706904656608    2.84797527119171    0.65742282239311
O         3.76006431091831    2.61128407804029   -0.44472496474765
C         2.77200302891534    1.91669730860239    3.55078469832349
O         2.82058503853265    0.96405430843120    4.18753485527904
N         1.35698689611908    4.50272378407323    3.64844248696004
C         0.15342102250718    4.21767747449043    3.10950830570495
C        -1.02620101844890    4.77418652249996    3.60610731769431
H        -1.96154505612926    4.51902009046074    3.13289847829850
C        -0.95436480024469    5.61652047382746    4.69417100877311
H        -1.84983974167533    6.05507548452707    5.10769843861610
C         0.28993003360218    5.88656069696852    5.26253072307072
H         0.38208586626358    6.52992909218208    6.12178051758760
C         1.41548385845193    5.31293307759283    4.70752574712612
H         2.40090633486435    5.50140449397593    5.12204874246428
N         2.66499518392239    5.44963661285993    1.36489740287904
C         3.57331921485429    6.25945969923222    1.93665391927187
C         3.73510154956906    7.58587310720533    1.54009545126158
H         4.48115538427394    8.19328739783221    2.02814345505422
C         2.93299802900466    8.07042833919680    0.52857156699573
H         3.03351371130008    9.09162827967068    0.19321394144832
C         1.99265818929219    7.22619089110998   -0.05981854411582
H         1.35395285626114    7.57338530743912   -0.85510871101736
C         1.89352682645541    5.92419017957634    0.38794976666125
H         1.17977984078795    5.23065450451710   -0.04462241989015

