52
CSD_code = TETFON | q = 1 | S = 0 | Stoichiometry = C14H30ClN2NiO2S2(1+) | MND = 6
Cl        3.39776092969791    0.26498263075821    7.83738328129955
Ni        2.79357655923264    2.28251858335917    7.80044783486862
S         1.02752287007616    1.69705613462258    8.93034223798806
S         2.02222502948853    2.25625230130607    5.03668444410645
O         1.46492819336140    4.12371577097701    7.36106282140319
O         0.61691453659795    0.05949297091525    6.50354991328421
N         3.73177695034983    3.04745552639930    9.76938350844919
N         4.63965298632859    2.87277044460014    7.05996084281128
C         0.11147937769199    4.05276409887083    7.78313027787213
C        -0.29389530294840    2.61437179404210    8.07957936713183
C         1.31857849463308    2.76658178967500   10.39197132556771
C         2.77250051383906    2.68609808920728   10.82862049141408
C         5.01356787332884    2.42785100277501   10.14141273323758
C         6.16369217817781    2.63999816383413    9.16688228135993
C         5.85787155828777    2.31588142562885    7.70586213008532
C         3.81162253683123    4.50912990711001    9.63475698905017
C         4.66451187240678    5.05088545526041    8.47549898207422
C         4.59185606768649    4.34989129920787    7.10881884132427
C         4.77393355164186    2.42512870411947    5.64973038233679
C         3.70571239275345    2.83537243740958    4.64634584497554
C         2.07855483569027    0.48235884518450    4.60907148110522
C         0.78592803805388   -0.14609745326901    5.12455491238321
H         1.46962717249761    4.05544975821319    6.39698797613855
H         1.33718039143986   -0.39672990671624    6.96821869320716
H        -0.55274507182615    4.47102167798824    7.02160454107237
H         0.02119924153438    4.68222779834727    8.67437295736121
H        -1.19027666985241    2.56354919568986    8.69548362931316
H        -0.44476269570167    2.04192202301005    7.16411656031426
H         0.67499027921729    2.38848746407088   11.18657151035621
H         1.03013467486877    3.78502152145268   10.15378251019444
H         2.91438515847569    3.32339477634998   11.71457064381324
H         2.97320966236491    1.65324329794426   11.12344743210090
H         4.83280015052387    1.35167992748793   10.21069119923844
H         5.33027090279516    2.79071701847842   11.13057024534739
H         6.95262152596261    1.94409874502142    9.46280563609297
H         6.59015009392877    3.63243323406444    9.27415970761766
H         6.72956006707101    2.64353422145749    7.12324041629611
H         5.78148348674564    1.22975846424239    7.61796923994765
H         4.19993249714316    4.95270321626272   10.56534627539251
H         2.79176109340073    4.87064556826018    9.49091423919417
H         5.70143464213224    5.14187396170944    8.78634246826714
H         4.32179041311616    6.07351457220447    8.29835118840099
H         3.66357095448628    4.65945342759118    6.62482135102405
H         5.42707325489640    4.74306010965110    6.51039609418287
H         4.82608530626341    1.33328320549931    5.66994537496567
H         5.72945398629778    2.79821752095672    5.25054494995098
H         3.62598785351913    3.91676523758207    4.54264760258426
H         3.97250232569662    2.42063515430820    3.67396630256718
H         2.94197908725758    0.03966538718539    5.10512755474648
H         2.15814824560396    0.39003137874092    3.52683183421921
H        -0.07613403794071    0.32045775817360    4.63938062989714
H         0.78841396487450   -1.21567563722452    4.87954031206220

