50
CSD_code = TETGEF | q = 0 | S = 0 | Stoichiometry = C21H22N2O2RuSi2 | MND = 8
Ru        0.67624235771125    2.60221775686698   -0.19130840829648
Si        0.89965314864361    4.96739223548253   -0.59305311934904
Si        1.56499031790480    6.24283627580711    1.32393573261909
N         4.15756515711745   12.77286324366913   -1.45509122642300
N         0.84477717202988   15.38982833482642   -1.40224662302947
O        -1.79881099928303    3.08499298002016    1.43063211174711
O        -0.99032687912511    2.29871762909257   -2.66439886480198
C         2.63835697766515    1.74874816066072   -0.83962017999036
H         3.17134980376559    1.77379671754167   -1.78288368556854
C         2.90529367639568    2.58501239765460    0.27347405817291
H         3.62354547454132    3.39230292024606    0.30152011909636
C         2.18082166635892    2.08343244374088    1.38353667468398
H         2.31007896351103    2.40241738987796    2.41136119332139
C         1.55264280236069    0.86617160951322    0.97913596747753
H         1.05658314505928    0.16611679725643    1.63736618916277
C         1.83381966048586    0.66141153042868   -0.38281634131428
H         1.58929162061697   -0.22291353003580   -0.95556752835813
C        -0.84928671691228    2.93595712967603    0.79783862898734
C        -0.35603077772503    2.46378581432952   -1.71997594328269
C         2.16730964007712    5.32335304889828   -2.00742604814887
H         1.89535323707626    4.81010374295065   -2.92605829924608
H         3.17765394371212    5.02135935408691   -1.74945284834823
H         2.18991329165813    6.38749971676865   -2.22175076142944
C        -0.72260619277772    5.82043884543011   -1.20471873148389
H        -0.57724187163477    6.88951574509263   -1.32527870204329
H        -1.53449765140884    5.67226358970300   -0.49866180357549
H        -1.04918026362193    5.42146798690584   -2.16076451241611
C         0.44299210050590    5.84460172649391    2.81865357595930
H         0.66922821949140    6.46196425563472    3.68330843839927
H         0.55863262883141    4.80535773485249    3.11477905776693
H        -0.60436896954323    5.98799451966805    2.57346929978637
C         3.37975036886095    5.99366363753710    1.88474095726711
H         3.68040858358319    6.75274431029435    2.60142708606262
H         4.07049993601996    6.04419278726552    1.04857087972264
H         3.51288090715978    5.02764358816308    2.36228382099109
C         1.37002704513332    8.07584545951165    0.86781488500786
C         2.42549116402615    8.79753551421840    0.30980480664217
H         3.38550985057441    8.31926827980155    0.19174184101780
C         2.28247930479907   10.10851878347714   -0.08717210420435
H         3.12608173053198   10.63260165796763   -0.50715948524520
C         1.05114907394324   10.76224426792447    0.05301161986208
C        -0.01823080296587   10.03710454858613    0.60133492220722
H        -0.97867926805735   10.52021529171808    0.71694660319875
C         0.14311172270691    8.72784192922677    0.99340812483226
H        -0.69611367305773    8.19511282914519    1.41336853591134
C         0.81790036062707   12.12641510198769   -0.32954310551956
H        -0.19350342240580   12.48411074505939   -0.16704602562715
C         1.68287508828295   13.02916483982183   -0.86299192649167
C         3.04660322780223   12.84239909645705   -1.17488340943601
C         1.22451411894487   14.33496922869804   -1.16339544627147

