41
CSD_code = TETJEK | q = 0 | S = 0 | Stoichiometry = C15H18CdCl2N4O | MND = 5
Cd        3.74967822981366    3.59618892110180   10.77381134835453
Cl        1.57862997131480    3.19005413333077   11.50759282131697
Cl        3.98393792525282    2.65677179013371    8.54560738114337
N         5.37689694522697    2.62836955291578   12.41472962342900
N         5.75945866320923    4.59733337702516   10.62530545266745
N         5.87003504750424    5.48122906133416    9.63077344576063
N         4.51149264853190    5.91559511248514    6.68242623562034
O         3.58698069642718    5.79657108545259    9.73402080746785
C         6.57658312835743    3.17513033243067   12.30617018391924
C         7.67141292547615    2.74271384745496   13.09502621299014
H         8.63135005295371    3.22021570153335   12.96901415403801
C         7.49093992064039    1.73224942482648   13.99348032528585
H         8.30673217495979    1.37727700517244   14.60800603575933
C         6.21749699805329    1.13832504107662   14.12578852655771
C         5.94453531718538    0.09314292324006   15.02805485492744
H         6.74681491662120   -0.27786156060344   15.65018882122076
C         4.68650267939385   -0.43762619922627   15.11135349633334
H         4.48064470532804   -1.23957577145174   15.80477963562272
C         3.65119360084433    0.05617605117758   14.30032469248211
H         2.66396041337595   -0.37216462640411   14.38541422550522
C         3.87890288961595    1.06956347156022   13.41094652113632
H         3.08489128366811    1.46408693248328   12.79013674726335
C         5.16807783823772    1.63439261954155   13.29818419509986
C         6.75776306179195    4.23733786167080   11.33965987092591
C         4.69626426083214    5.91375442138894    9.19595900972757
C         4.81097503417404    6.72682309600946    7.88884786036212
H         4.09830733307861    7.55268288486358    7.94089572334262
H         5.82846111219252    7.11206964148387    7.81517344584662
C         3.14408524359207    5.36918524855865    6.75464574685841
H         2.89357580904345    4.88576091768546    5.81304999417780
H         2.42995271320364    6.16244621834385    6.96386958633796
H         3.09016149456099    4.61554239814140    7.54614129405716
C         5.46871800102121    4.80045510979865    6.56871580499123
H         5.25505260651077    4.05238315248582    7.34333929692985
H         6.48615886230711    5.16637206593565    6.68047816724748
H         5.35367657620342    4.31853412065281    5.60048588317443
C         4.62932158212742    6.78705637700963    5.50198568574627
H         5.63878376521656    7.18957766123899    5.43229122147943
H         3.92367206086769    7.61369245901046    5.57109530498579
H         4.41471231019869    6.21948512383721    4.59786703050946
H         7.74440920107695    4.68938301538677   11.23526332936176

