91
CSD_code = TETKIN | q = 0 | S = 0 | Stoichiometry = C36H44AgF3N2O4S | MND = 3
Ag        1.39965582504383    7.28704266309620   15.77761668692994
N         2.35487911385822    5.17089377829248   16.40907455481791
C         1.83914193671487    4.98531271452448   17.69170135075732
C         1.14014219844558    3.84224644680545   18.06955109380352
C         0.57468513401507    3.75610986316165   19.32539964575816
C         0.71708022050161    4.78641679752731   20.23797583401200
C         1.37102728071068    5.95649413614582   19.88009998075107
C         1.88831672915982    6.05699304348871   18.59266906536683
C         1.59025731366479    7.13472951152929   20.81217849990841
C         1.38822835647415    8.38950474550747   19.98523032683320
C         1.85979368306339    8.36770541145574   18.67604392574967
O         2.42776249922448    7.24127192734523   18.13010586447702
C         0.80544673757859    9.55670448485841   20.45942139500760
C         0.70653084107745   10.67614878608855   19.65249307576990
C         1.19401733965964   10.65553222848028   18.36022979823079
C         1.76921774247372    9.49598447548938   17.85278802647748
C         0.68675358956109    7.09005264947365   22.04288594057214
C         3.06156309069585    7.10517155924127   21.27620266051149
N         2.17158895912879    9.39255343120442   16.51410738624729
C         3.07007948913611   10.14092745368470   16.02675131136299
C         3.53750809607166   10.07291019199912   14.59558324963929
C         4.07558484751981   11.51290700573913   14.38279979749373
C         4.97169310776654   11.46998833802803   15.63873180716526
C         3.96573851307201   11.12243613328952   16.73996819941696
C         4.84028508343008    9.24607325638600   14.72548751200246
C         5.82247961146359   10.21264981791003   15.41456458371442
C         2.52910735385945    9.53714797966878   13.60399284604124
C         4.84206850547995   11.72367570493839   13.08027796723551
C         2.97355513322274   12.57259745471057   14.45028359559478
C         2.98833791617052    4.27989909777879   15.76956176680602
C         3.33973120609778    4.38638253906544   14.30827262193126
C         4.72305436376184    3.68972237364708   14.27257331384204
C         4.20591800057341    2.41671813311460   14.97381487069105
C         3.56777557987596    2.96859275966936   16.25176582251467
C         2.39603837703714    3.32564620301194   13.68537951139462
C         3.03526650581168    1.98255063532302   14.08166023407682
C         3.21025639443017    5.75649975540380   13.68364630406702
C         5.78561984780336    4.44657048262930   15.07234998974133
C         5.28069396702200    3.43850523302189   12.87420766061098
S        -0.76800455591821    5.99862524450448   15.36415648028965
O        -0.72180463242413    6.62690784445449   16.66662619095649
O        -0.26735855300084    4.65328428376996   15.29795582522973
O        -0.31847424120944    6.85897153863399   14.28060700127552
C        -2.60277913624631    5.83721563410469   15.02978127365149
F        -3.21000520639129    5.08278368247540   15.95379732511148
F        -3.20286220990446    7.03262159672179   15.03481918674447
F        -2.84432830428498    5.27600667618275   13.83890970380950
H         0.96962803510123    3.06645185311660   17.34226717210196
H         0.01680797534649    2.87366901027982   19.59989197242199
H         0.28745449637691    4.67933997985730   21.21997578641040
H         0.41910765398170    9.60193088041011   21.46378489821002
H         0.24435661070113   11.57323673734284   20.03525875418685
H         1.08546751375928   11.51665052558168   17.71861555386107
H         0.87650348308351    6.18560780295040   22.61478407176117
H         0.89640032180066    7.93342811096627   22.69578047502927
H        -0.36044971193651    7.11532094483752   21.75247354062951
H         3.25633599339490    6.19325961865590   21.83662609858221
H         3.73676154208276    7.13723875376848   20.42419521630744
H         3.26908061226287    7.96186368959772   21.91435834360631
H         5.55278521050408   12.36906662594038   15.83655181566223
H         4.42262009370555   10.66305137418284   17.61837579028836
H         3.41957362947730   12.00024842571941   17.08180633684290
H         5.19029450384590    8.93984074850711   13.74114699251075
H         4.65609630116449    8.34825715530532   15.31781767636300
H         6.19150672633658    9.81469184533116   16.35908032252029
H         6.68792081938876   10.42750700063338   14.78946688622488
H         2.06884890982325    8.61205255625059   13.99285458721832
H         1.73581932197588   10.26257745211443   13.44554680146252
H         3.00467713416762    9.32034125341846   12.65145478140393
H         5.25372581078436   12.73075890071497   13.06268056820074
H         5.65814026596830   11.02253797520990   12.95151636866301
H         4.16836147007146   11.61891003157117   12.23348536587816
H         3.39890246836186   13.53933726165919   14.71263886364301
H         2.49264579023082   12.67155007807548   13.48028024983306
H         2.20547358111744   12.31890897762609   15.17451152084944
H         4.94704486460188    1.63752416660247   15.14862435873179
H         2.81747480646293    2.29038907982734   16.65071612862019
H         4.29470483544903    3.15028157478195   17.04580932687898
H         2.34970185018171    3.45613071930988   12.60515025045967
H         1.38713873808936    3.45188328836300   14.07879127074050
H         2.34152157064857    1.34078736628440   14.62333992419468
H         3.38476831592314    1.42468914542630   13.21350316305715
H         3.51693465862635    5.72510581424639   12.64106641630875
H         2.16206772380361    6.07280452495098   13.72362370143364
H         3.83353102907376    6.47633541853472   14.21665474884237
H         6.61659188297046    3.78527877334174   15.31070932505256
H         6.17339985990503    5.27544188559278   14.48434228310096
H         5.38751052518974    4.85613147455811   15.99611262542596
H         6.14191703668580    2.77624518247783   12.94011208641128
H         4.55404083866156    2.98657467251987   12.20949930204847
H         5.60984124957227    4.37447564003318   12.42851721360290

