91
CSD_code = TETRUI | q = 0 | S = 0 | Stoichiometry = C48H36CuN3OP2 | MND = 4
Cu        1.98101711362099    5.59960241703893   15.36941566162110
P         2.68472628416356    3.39874247359961   14.35078707697314
P         2.65416221991500    7.05112576390174   13.83622805286838
N         2.25778992731420    5.57006329845730   17.27000936967853
C         3.15593822574327    5.88405292488624   18.23300038205019
C         4.29665460444943    6.68216131803101   18.20694795742897
H         4.59976856444499    7.18879546865411   17.29848248880448
C         5.01700915361656    6.79440653402491   19.37324052101527
H         5.90991586432610    7.40482860012790   19.39303182361549
C         4.62298035713760    6.13487370534432   20.54640518968194
H         5.22584239540288    6.25837415911938   21.43595497157084
C         3.49884653823651    5.34401447246676   20.59339361903135
H         3.19956855498037    4.83897380470676   21.49938271771895
C         2.74773509263222    5.20942379730845   19.42638303505386
N         1.61588905032445    4.50455082288947   19.16946962557872
C         1.36750534792323    4.74903690956745   17.88575217178747
C         0.25270813139446    4.23623886538658   17.13423822697168
C        -0.70089222128806    3.38995440942832   17.70986349405629
H        -0.58129883683842    3.11713564890629   18.74557880093116
C        -1.74676539572684    2.94007306441945   16.93596399414105
H        -2.49665307701779    2.28131071957024   17.34985916294031
C        -1.82901798938122    3.35151056660807   15.60874796409798
H        -2.63604812836579    3.02565342201638   14.97176493259224
C        -0.84729774264103    4.19132327444929   15.11967865100384
H        -0.88006811156210    4.54405376838437   14.09622858888657
N         0.16950617414572    4.62052949768275   15.85028776622643
C         3.55924595331343    3.04147570156448   12.77747174940417
C         3.46642935129105    1.97047074414762   11.90917465457046
H         2.80774121531234    1.14360046126960   12.12975898966264
C         4.23167557490511    1.96377685190844   10.75121476087290
H         4.16471935404672    1.12604612738597   10.07331067816393
C         5.07338795408239    3.02074177983765   10.45625882280691
H         5.65323632096747    3.01032398968231    9.54567779766225
C         5.18391881965787    4.10316540247635   11.31856734042123
H         5.82739525373265    4.93699090826556   11.08068931528794
C         4.43588835082412    4.09380072088827   12.47827023518165
O         4.35932867842363    5.07888584012007   13.41562294261345
C         5.16610117451956    6.17569366798486   13.50073417345087
C         6.54686423626204    6.17496990156263   13.43774699041340
H         7.08581223073842    5.26082566723892   13.23806483168329
C         7.22018098353185    7.36661475226823   13.66889016451746
H         8.29866748611099    7.38136218294810   13.62361179727328
C         6.52677934899141    8.52581644679655   13.97329452299011
H         7.06835557434283    9.44059661226808   14.16134511666073
C         5.14139240015132    8.52242259434936   14.04334940282219
H         4.60000320113871    9.42541021887576   14.28614731921178
C         4.45415683183772    7.34782600576431   13.78859467692066
C         1.50061411253627    2.02859894883436   14.49418751021265
C         0.62010737406394    1.78898894080357   13.44032612101811
H         0.73848772006605    2.34002061617739   12.51619290054176
C        -0.39306672096093    0.85923289232961   13.57305599204092
H        -1.06051370811426    0.66612018403781   12.74499022341770
C        -0.56170498691292    0.18415056899825   14.77143043787925
H        -1.35578717602815   -0.54038905981187   14.87678369623513
C         0.27823639146240    0.45385693737009   15.83933992599998
H         0.13338686426592   -0.05234800268050   16.78258626733733
C         1.29941767988511    1.37635132379550   15.70757821009200
H         1.94210749598319    1.59793704225909   16.54880653573553
C         4.05077454749310    2.85889039894566   15.43924223593701
C         4.71592603856968    3.80729948556794   16.20394166470156
H         4.40422505693925    4.84059825077348   16.15304964858423
C         5.75641234133893    3.42972010045181   17.03381559528469
H         6.25142592802772    4.17263671680322   17.64196753069944
C         6.14716055097334    2.10295525255865   17.08908118159968
H         6.95425982330584    1.80305792609920   17.74140842685196
C         5.50447516921597    1.15672814065897   16.30487767485936
H         5.81680905334461    0.12282945606068   16.34065159451368
C         4.46143713155822    1.52936862675113   15.47842191081743
H         3.95833630422908    0.79118648289051   14.86812882834241
C         2.39347789561997    6.57958613987307   12.09319094845015
C         1.48797384866875    5.55421463826412   11.84546585492941
H         0.94084790466119    5.13427891147844   12.68140878334050
C         1.31199701985071    5.07476947839389   10.56064049741549
H         0.61227717806906    4.27402227500454   10.36980273712331
C         2.04322340900240    5.61690831199372    9.51679751309424
H         1.91507232644421    5.23841912669154    8.51354269212156
C         2.94346417546478    6.64243869263740    9.75806082477662
H         3.51179623955342    7.06435647024188    8.94168770162829
C         3.12475593032452    7.12354113879163   11.04206561558060
H         3.83713380548173    7.91535075034497   11.23313889819476
C         2.02082452109050    8.74726382566722   13.97807776066258
C         1.52281343459829    9.50230665165768   12.92373737613057
H         1.50215947779147    9.09149603276115   11.92398665608388
C         1.05034864825827   10.78174005804282   13.16111237148350
H         0.66462814535103   11.37092453617600   12.34163354852917
C         1.06946125342929   11.30825199024372   14.44217146231136
H         0.70047810481796   12.30778701307638   14.61907060406375
C         1.54943083880238   10.54998191805728   15.49959663237445
H         1.55136205335043   10.95564369713746   16.50054845330268
C         2.01394104498051    9.26951193170835   15.27068274170647
H         2.36960336201870    8.65048889751474   16.08562368509127

