43
CSD_code = TETZAW | q = 0 | S = 0 | Stoichiometry = C8H16N10NiO8 | MND = 6
Ni        2.37174237007953    6.12533132962549    2.28908957806672
N         2.15345866633312    6.42053632703726    4.13215754487696
N         1.71931906700293    6.10831872769586    6.28942787017762
H         1.14870278759262    5.66787241124150    7.00296289367715
N         1.70904153783543    3.55771868395775    3.65577117806655
N         0.46197521442529    3.56937986030050    5.70902904345527
N         0.53104953895427    5.63087478511175    2.01940867830707
N        -1.04894370121672    4.21498694871406    1.36414082725194
H        -1.34674000310161    3.32397003068750    0.98194548883523
N         0.83124988430871    2.71127432919456   -0.25108465663576
N         2.27173608671057    4.60719627875581   -0.08653103473149
N         4.39371438616432    6.23780341870829    2.42602525518173
H         4.87501457237240    6.91892483649000    3.00275011309819
H         4.72705377880868    6.31438703634439    1.46746280192221
H         4.62051262455211    5.30076470343717    2.75865100039016
N         2.18114872211463    8.38895623556894    1.47133641674386
H         1.23531052643022    8.74793065113337    1.53293694566615
H         2.38578239280016    8.22961389015138    0.48967754089762
H         2.81490832633863    9.10278566670901    1.81044079564303
O         0.00749773448104    4.23456951857596    6.64971454364224
O         0.18610066679701    2.39900372210778    5.55117809599953
O         1.04278661523711    2.65033419764457    3.19574657348500
O         2.73806267914137    3.96593677876826    3.08023706569898
O        -0.33418819303568    2.33118243716839   -0.21520966320977
O         1.73045202056619    2.05585826566616   -0.71705969081475
O         2.65166712865252    5.67136378686666    0.50265516209581
O         2.91696917450189    4.24891412209211   -1.05314237630949
C         2.40894933967807    7.71045470089037    4.76665973855967
H         1.85643031662597    8.49233988004062    4.24275097786122
H         3.47548377872153    7.94812120011933    4.71632552107839
C         1.94549058665186    7.53356126512825    6.22737603263643
H         2.70856941273005    7.83076175991928    6.94993288036350
H         1.02613464412161    8.08977885157385    6.44204413833751
C         1.74884253776957    5.57228395513074    5.05056380240888
C         1.33551547348102    4.20928985982367    4.82373753633842
C        -0.68331847221404    6.03746043281754    2.72809281186762
H        -1.04364329885233    6.97703836270590    2.29327853130598
H        -0.49011227849031    6.20459100681541    3.78727958231221
C        -1.67616040220869    4.88705076116209    2.47925165244245
H        -1.76289380418402    4.21232210288075    3.33895420676455
H        -2.67122222766337    5.24159811779247    2.20796271977068
C         0.22722781969900    4.60910889162031    1.24493761013269
C         1.12492196928904    3.98744987182739    0.30113426634293

