65
CSD_code = TEVHAG | q = 1 | S = 0 | Stoichiometry = C32H24N5O3Zn(1+) | MND = 5
Zn        1.15143947147376    3.95204678227459    3.15506963869993
O         2.73573892048220    3.46723235387566    4.31232687894568
O         2.34349292875475    2.46149853688477    2.48822169431751
O         4.02833407733753    1.90164177312302    3.66665427041275
N         2.13242900137740    5.22007488404338    1.77301085557271
N        -0.16684092744895    3.79760543625757    1.55721805858636
N        -0.03898468375648    2.83653715559273    4.50298999416116
N         0.53111276479155    5.48794876160109    4.41101496871640
N         3.07044675098657    2.58563316832702    3.49463520041119
C         1.53736284827936    5.12528382045646    0.59287272488852
C         1.97347495034845    5.83796249403499   -0.54134306911375
H         1.45833124390534    5.71047014479198   -1.48029984349673
C         3.03569975896338    6.69206858738639   -0.42054611613093
H         3.38955719386470    7.26565976601817   -1.26424165126530
C         3.67898617498383    6.82145280324928    0.82451914247693
C         4.77197268704646    7.68723109787933    1.02689479077110
H         5.12317756054048    8.27931747805289    0.19538743608749
C         5.37570427685945    7.76568367353700    2.25086114089928
H         6.21356190771384    8.42804808367791    2.40312692525922
C         4.91978706107213    6.97187393172016    3.31748603411215
H         5.42137427334209    7.03155201240623    4.27081438321770
C         3.86000817562860    6.12345041189191    3.15927643727702
H         3.52473971661851    5.50351084223667    3.97484566958377
C         0.36900305561119    4.27200151879938    0.50263145915497
H        -0.04876091676632    4.09826670917391   -0.48911452172225
C        -1.26823840043565    2.94801315653421    1.50062538420527
C        -1.34188158217506    1.90621557988605    0.57529620169413
H        -0.53285286451071    1.75559301470033   -0.12374303479117
C        -2.41270641831866    1.03342324039808    0.60590299155575
H        -2.45751450819288    0.21912489701884   -0.10046892273796
C        -3.42393218278648    1.19994953587175    1.53839644153428
H        -4.25847818316370    0.51694021102124    1.55759393414501
C        -3.36280168075486    2.24591703899444    2.44694988591741
H        -4.15598852920075    2.38412939923662    3.16559099545732
C        -2.28784810926176    3.11221919432609    2.43827608259932
H        -2.23712374307720    3.93945595380352    3.13076362074404
C        -0.39515805730166    3.61208948347133    5.51664149200905
C        -1.17334681922415    3.14892380355250    6.59568549162565
H        -1.42029904109196    3.82245400963066    7.40103239777102
C        -1.61255389078868    1.85301031389951    6.58909958108804
H        -2.22193700234748    1.46598237892645    7.39212879623501
C        -1.25884557711797    1.01012767602683    5.51904066912929
C        -1.68005268494994   -0.33212213973976    5.44052966864370
H        -2.30653793257082   -0.72402359568146    6.22744222603598
C        -1.29449976667163   -1.11847147922635    4.39094724129355
H        -1.61682911455180   -2.14644273867387    4.33362435799279
C        -0.46249296349409   -0.59796296108521    3.38468364392080
H        -0.15024358305152   -1.23915406301403    2.57519307225112
C        -0.03795552892045    0.70061621758066    3.42527187764218
H         0.61498305372292    1.09012247294329    2.66114552174488
C        -0.43251942837356    1.54719346277972    4.48312683283535
C         0.01880521395317    5.00051914241894    5.47137595469583
H        -0.16891078214404    5.60764319806737    6.35704109079930
C         0.97250688408165    6.80688039600805    4.35129073418745
C         1.70517549797132    7.38021499200180    5.39132415653755
H         1.92901373627124    6.79588062692769    6.27126996925460
C         2.19964130960564    8.66362308102778    5.25877650533748
H         2.77971070965016    9.09696991079151    6.05866934622247
C         1.95456441416249    9.39145815629131    4.10549960488008
H         2.34174597332481   10.39332998602643    4.00682058839424
C         1.20981457385046    8.83148438897204    3.07832318582227
H         1.00739486801903    9.40222086657902    2.18501076228432
C         0.72709309975774    7.54301214596774    3.19208937263884
H         0.13310004263804    7.10228927523793    2.40507567248235
C         3.19905072549469    6.03199754322432    1.91574410408727

