36
CSD_code = TEVJAI | q = 0 | S = 0 | Stoichiometry = C17H14Cl2N2Zn | MND = 4
C        -0.11726086999887    5.51840875048967   13.84260256278804
C        -0.56793867756290    6.28900214181209   14.93616881755296
H        -1.23637703544747    5.84479633744715   15.65731283003778
C        -0.15340619273213    7.58656726161207   15.05297339244821
H        -0.48531186357001    8.20639318445309   15.87349001856957
C         0.71516886988157    8.12905391621008   14.08444231790710
C         1.18329000936662    9.45695401782688   14.12188203759793
H         0.86846249888132   10.09536488177107   14.93434246220816
C         2.01664446603978    9.92341594931999   13.14273435943728
H         2.37079235750363   10.94278628037922   13.17242731690803
C         2.42009709745764    9.08569605608531   12.08811577467585
H         3.07780141268658    9.47591052200906   11.32658961801553
C         1.98790085321239    7.79073039658278   12.02001492043345
H         2.29041152947678    7.13293345608048   11.21798037199071
C         1.12431872653460    7.28236602320093   13.01203755269077
C        -0.57828121786984    2.13430425244273   12.51332237733064
C         0.32518423693609    1.10592143210625   12.19735364892782
C        -0.19018412329824   -0.15016488821072   11.91453947856220
H         0.49242782315274   -0.95198911349074   11.67399652354256
C        -1.55349720960907   -0.39237226354785   11.92515434747795
H        -1.92696682392553   -1.37673443097313   11.68676264527257
C        -2.43727346063466    0.63016905687720   12.23040530944714
H        -3.50174014197586    0.45238572183652   12.22349430073784
C        -1.95264122368654    1.88608628151340   12.53395979003075
H        -2.63118719142257    2.70568614024918   12.71941685376453
C         1.79696817982633    1.35432022810890   12.21221572534044
H         2.34196994624661    0.44965700517577   11.95719568294087
H         2.05873880613005    2.13320382669507   11.49541170085997
H         2.12190182754175    1.69534817944400   13.19443633453203
N         0.69854702187802    6.01044065987456   12.92773315298751
N        -0.09291883401805    3.41485738951744   12.74484195728349
Cl       -1.32706529866683    5.35044684742624   10.44139705688697
Cl        2.54561725826943    4.40612404233570   10.17223646916885
Zn        0.65247852722907    4.75021825692258   11.23129106450218
C        -0.55622485181896    4.14697197848788   13.67991166950181
H        -1.29034643201542    3.77324022194491   14.39590955763094

