118
CSD_code = TEVMEN | q = 0 | S = 0 | Stoichiometry = C58H53ClN2OP2Ru | MND = 6
Ru       19.34655812640087    0.82803832741163    6.43709426310553
H        18.98746776340818    2.26469457578975    6.83347628518772
Cl       20.13449122858740   -1.40796714794144    6.23131307768912
P        19.52838268950270    1.39200515472559    4.24547813078761
P        17.13755670440482    0.46209207017952    6.13907337733720
O        22.43083750719554    2.17593808724141    8.81526095119066
N        19.36008485317394    0.26054130109878    8.55632264357588
H        18.47428074189143    0.12929977738743    9.04485213360563
H        19.82294732745485   -0.65558956482604    8.47630207235635
N        21.30467966034990    1.27603816513732    7.10732570197536
C        18.45815857411604    0.39100733245327    3.13315707581222
C        18.97453146370583   -0.68554246779546    2.38485029705817
H        20.03797074850403   -0.86256602094479    2.37927206051249
C        18.15983733762934   -1.49615480189430    1.65083863073474
H        18.57523478153762   -2.31929493280061    1.08652430962579
C        16.76996696390016   -1.27294037942743    1.60370053742442
C        15.91178572761323   -2.10048324779761    0.85186258093955
H        16.34025132574251   -2.93755762529490    0.31884468630082
C        14.57031129631281   -1.85062505210792    0.79578257154158
H        13.91737545765198   -2.48591401807306    0.21509209715824
C        14.03292780596572   -0.76289741147895    1.49858628644986
H        12.97025643904045   -0.57384242187804    1.45137515195732
C        14.83815387435698    0.04885247251431    2.24683458815775
H        14.40790166489242    0.87423997174875    2.79325467816633
C        16.23138925912481   -0.17336020003037    2.31867982366940
C        17.09541378951523    0.64853394066680    3.09734553730921
C        16.34924112352519    1.80631947595739    5.17894939731417
C        15.69513770072261    2.88324068453248    5.80719043994570
H        15.55217096413421    2.86133571102537    6.87656669044014
C        15.22006360889734    3.93788071883050    5.08439355877181
H        14.71619318290042    4.75697439137022    5.57865235321416
C        15.36287365465951    3.97640886308221    3.68280680696005
C        14.87696817142998    5.05590563515026    2.91776913320423
H        14.40241014891137    5.87992628335218    3.43199348963679
C        14.99815612499104    5.06088705137907    1.55719946156915
H        14.61967932998147    5.88914594575469    0.97591672386611
C        15.61789314606151    3.98476385583021    0.90621170880960
H        15.70978365558771    3.99789650661197   -0.17007790477450
C        16.11052532246284    2.93003021543994    1.62184373971116
H        16.59425873518944    2.11142948137215    1.11105523869805
C        15.99391312351379    2.88791281956511    3.02853592513489
C        16.49867953658354    1.80514541771871    3.80191531957321
C        21.20239495921999    1.20245234237555    3.52799022727429
C        21.94074982358037    2.27932499639317    3.04100813299235
H        21.51335794161277    3.27177718152237    3.03073390469075
C        23.23018370317396    2.09039338918639    2.57458052720648
H        23.78988173629510    2.93527721982498    2.19886825881402
C        23.80291124991638    0.82972193381105    2.58787683051633
H        24.80451689199375    0.68481369071454    2.20950023034806
C        23.09399570935456   -0.23837810019660    3.11209120615559
H        23.54561422385587   -1.21923768954128    3.15559884201325
C        21.81303105448737   -0.05019673698301    3.59827699034459
H        21.29057318659229   -0.87100128191090    4.07077401259592
C        19.09686500920807    3.05300818410425    3.60007767300757
C        19.12102309942425    3.27333219930810    2.22473880767045
H        19.38430832469345    2.46015427786914    1.56049619931078
C        18.81349747431634    4.51913932867087    1.71364455715882
H        18.83631059229692    4.68434864460125    0.64609883048804
C        18.46857260897682    5.55517078803373    2.56720179045343
H        18.21851635555022    6.52561365639364    2.16385923691376
C        18.44050996861011    5.34133882505562    3.93416785938882
H        18.16430334980659    6.14613148861764    4.60078116542065
C        18.76033541916867    4.09731088453461    4.44850178134580
H        18.73196730806654    3.91154590384133    5.51255284039653
C        16.30332417951525   -0.97091522137044    5.36364732846913
C        17.02120251883068   -2.09337326280589    4.97521830389574
H        18.08894604525639   -2.12614845360771    5.13580935183052
C        16.36908556818555   -3.16089717786830    4.38261866649366
H        16.93321779706701   -4.02884286868297    4.07366745295662
C        14.99998424527177   -3.11803648741772    4.18775843588843
H        14.49138541135206   -3.95085348041847    3.72396139272993
C        14.27681737470227   -2.00507540310136    4.58886596465709
H        13.20656526782499   -1.97384967355598    4.44188078713498
C        14.92380067159561   -0.93274791968336    5.16958550378942
H        14.36699731217037   -0.05702820718784    5.47890663806058
C        16.28344283739439    0.49266160487075    7.76227871247721
C        16.55697220578886    1.56066678821476    8.62125939645869
H        17.20991058894701    2.35077981609104    8.27351742987775
C        16.03449051847957    1.59561507377515    9.90058807908502
H        16.24512122388258    2.43590116875467   10.54751979880708
C        15.24838966199673    0.54885012231043   10.35727672352276
H        14.84252526981145    0.57093903770842   11.35799750155868
C        15.00190738974181   -0.53203476785921    9.52847915611395
H        14.40616136428654   -1.35994524185028    9.88498124411527
C        15.51665725438693   -0.56509448941192    8.24260425710422
H        15.32101748455784   -1.42161039981962    7.61445763021128
C        21.33638637857078    1.54746348131472    8.35412048016900
C        20.21311432261966    1.19666894285145    9.28185757084774
H        19.63031573238218    2.11319133655134    9.46392384998537
C        20.74045119245492    0.66818608181612   10.63443062913494
H        21.42239439820693    1.43244721136688   11.02126664464510
C        21.51807164587417   -0.63563804584289   10.46162008952153
H        22.28624282004063   -0.53015822298134    9.69858012129156
H        20.86193042513267   -1.45801737470816   10.18102132312020
H        22.00381061014040   -0.90496512292209   11.39652870029787
C        19.58847390286520    0.48560746561539   11.62052600199043
H        19.97422364563546    0.18940291998933   12.59277748509104
H        18.90134125895848   -0.28897213467168   11.28352949980887
H        19.03069021576417    1.41179645058871   11.74168707185259
C        22.62748216651253    1.56295619263545    6.56994906262528
H        22.55420503887322    2.04497023599837    5.59313869735855
C        23.21610778566398    2.50312243408967    7.64594432991183
H        24.25767146626530    2.27126181002769    7.88378888344321
C        23.40391211634387    0.25029141808620    6.46637247323601
H        22.77412024539886   -0.50804868310837    6.00779291621834
H        23.68641285420517   -0.09780683667030    7.45974872130687
H        24.29870866459576    0.38407324670413    5.86474924048707
C        23.06132663492057    3.96427032093863    7.30398753205629
C        21.89920137527881    4.42669149248921    6.69467036582812
H        21.09183305161412    3.74464732594231    6.46355212907188
C        21.76836472477065    5.76605423769040    6.37415863865346
H        20.86575598950117    6.10976273090614    5.89119696033305
C        22.78975190853854    6.65525247059296    6.66301943327945
H        22.68724600998932    7.69997465068962    6.40892308412853
C        23.94420845319794    6.20185222895920    7.27827235783529
H        24.74301613131788    6.89144461238315    7.50845600925071
C        24.07916982211883    4.86216552614416    7.59720639522040
H        24.98181618944852    4.50900097225722    8.07528201058828

