75
CSD_code = TEVMEO | q = 0 | S = 0 | Stoichiometry = C32H37BrN4Pd | MND = 4
Pd        8.29976189053967    5.47958334488016    3.88101367450676
Br       10.18428719381085    6.40807469769087    2.54277240429066
N         6.90368869143029    6.09006874298124    2.54468068616819
N         5.26739160448401    5.46706520383846    0.97773235228062
H         5.47658595328301    6.30932835033457    0.45760803821373
N         5.80503964926659    4.05439048014515    2.71394732841824
H         5.12973482570115    3.47333290028792    2.23623341370189
N         9.66256534814891    4.75907712909155    5.12381463095121
C         6.02682794487408    5.25245353938212    2.09942334607749
C         7.10918592659691    7.34178608717021    1.93301122585021
C         7.45014762067412    7.44748685190966    0.58541894077414
H         7.60687747724239    6.54899942361315    0.00360697255001
C         7.67200233274541    8.68453408681613    0.01307315251173
H         7.95108725050921    8.74548240733904   -1.02861769970427
C         7.56125830359955    9.84434411826597    0.76752327918721
C         7.24081307097527    9.72965066100303    2.11326953231192
H         7.17500284244728   10.62382473434696    2.71797218869396
C         7.01456148882360    8.50188073257917    2.71343807373905
C         7.82982899535071   11.18418098280021    0.15323816585168
H         8.90102350867237   11.38660127222163    0.16633886652950
H         7.32869041543303   11.97500684788015    0.70681100196933
H         7.49683553411570   11.20998532490809   -0.88230889030308
C         6.69809756837807    8.39600883500366    4.17504662341820
H         5.64947189298617    8.13393093624674    4.32862564778855
H         6.90186532236664    9.33495105694345    4.68368098991980
H         7.30972485498306    7.59138439215042    4.62368809834274
C         3.96307128942348    4.92074384378114    0.84179064799785
C         3.69032044498566    4.09651947325189   -0.24274549444574
H         4.47220914880247    3.90439751381248   -0.96198482211529
C         2.43996139445648    3.53101477447719   -0.39248811342001
H         2.23719678958170    2.88996914908149   -1.23741057430560
C         1.43960207477257    3.77554253579610    0.54200435704326
C         1.71959294404011    4.61397553595838    1.61126159386972
H         0.94443135717836    4.82412428915859    2.33506977209430
C         2.96586948483882    5.20287920436290    1.78062469570894
C         0.08899852301137    3.14874302777786    0.38190798857954
H         0.17649969431138    2.06351442371782    0.35069971437253
H        -0.36824303912646    3.47111748745094   -0.55264240819092
H        -0.56896209408648    3.42168208320796    1.20264636480175
C         3.22779475693809    6.12024218264909    2.93688204396935
H         2.29040829417161    6.47553503419512    3.35756316588341
H         3.81779208216193    6.97992724214268    2.62034524975605
H         3.77930606674961    5.61010491924526    3.72844531671475
C         5.85698059447234    3.85800062296248    4.11762778404191
C         6.81618519909532    4.52941237013962    4.88142588511234
C         6.78205470992806    4.33519692280922    6.25817448410309
H         7.50370389944088    4.83318251847103    6.89699445356405
C         5.85382727831865    3.49848141177575    6.86702682189655
C         4.94415142012383    2.82239768445376    6.06934276836956
H         4.23039451770490    2.15184526877502    6.52787506748986
C         4.92334847886502    2.98953116942371    4.69306228278050
C         5.83391647906333    3.33204017894832    8.35783203770326
H         5.14752906006480    4.05203907355678    8.80599588964046
H         6.82215327152875    3.50100749076384    8.78056735822961
H         5.49944671721738    2.33378430574772    8.63246383064538
C         3.92180050426796    2.23413269774480    3.86155700083074
H         3.26396727019434    2.90791790834623    3.30984175185817
H         3.30146096916585    1.61485345118271    4.50486136023930
H         4.41987781781355    1.57790323558743    3.14573059611855
C        10.21529218067381    5.51634343845011    6.07381261010185
C        11.24821958690651    5.03191515133999    6.86450355557032
H        11.68238044704820    5.66178285769024    7.62481853556946
C        11.71539511110853    3.74616397616889    6.65495778005525
H        12.51795247240927    3.34804861751287    7.25688692054273
C        11.14642483457478    2.98626583175954    5.64688696601448
H        11.49950862497298    1.98816221336092    5.44090046807093
C        10.11779374475672    3.52511853585863    4.88770889262675
C         9.69286138238957    6.91024484530178    6.21599787228714
H         9.82194779447881    7.43789920470005    5.26193975028571
H        10.22763522174674    7.45214840876087    6.99168529860026
H         8.62577215297347    6.89148131382173    6.46282088938724
C         9.48446200405697    2.76868351555794    3.76035978156461
H         8.45352060168672    2.50544549599255    4.02308014978494
H        10.03878742766215    1.85867224895299    3.54344800604583
H         9.46494150565189    3.40075217418181    2.85620160851106

