55
CSD_code = TEVNEO | q = 0 | S = 0 | Stoichiometry = C22H28FeN2O2 | MND = 4
Fe        6.59999370217323    4.70171519769674   16.56249838338548
O         6.79303263133899    6.02070125628633   17.97691305709518
O         7.58068135737209    4.45333915164258   15.09690335910894
N         4.67728485532530    4.60929741108778   17.07199233981643
N         7.99031973311886    2.98034260128393   17.50329203591652
C         5.97298535032101    6.67856037129013   18.71256941719009
C         6.44145548568652    7.67955025943589   19.59895353914162
H         7.50495280573335    7.86531676791342   19.62312654574389
C         5.57805448402238    8.40034206644563   20.38022753440019
H         5.96327922631524    9.16577389567398   21.03894714275760
C         4.20127893721987    8.15875209068218   20.33732325936969
H         3.53241432283675    8.73471370190085   20.95860747000688
C         3.71348730332021    7.18727495028081   19.50199937190104
H         2.64991470430161    6.99110533843770   19.46333823674399
C         4.56568339547184    6.42888317096712   18.68133848719597
C         4.01785732073541    5.41952198842180   17.84539641498411
H         2.93144940408933    5.33900014964698   17.90476242899961
C         3.88343690039077    3.60185027261555   16.34317328746754
C         4.83102620728755    2.66013266876187   15.58812161706759
H         5.34789555319801    3.19218734720619   14.78984366118532
H         4.26279619725426    1.84854832342350   15.14068399833485
H         5.56926648890188    2.23723599177858   16.26931670575500
C         2.97813539188196    4.30498367567360   15.32197366122393
H         2.23791652082577    4.93171910390569   15.81319595825620
H         2.45657728430791    3.56867255148914   14.71546947607615
H         3.58211907127595    4.93382538495316   14.67106725834134
C         3.04562493134219    2.75450437402767   17.31299034640164
H         3.68963443925707    2.30993706987037   18.06740244301686
H         2.54445123637682    1.95924118954703   16.76677724464761
H         2.28525264736245    3.34461142764079   17.81704433785502
C         8.96033869154158    2.51021196519299   16.82031074882028
H         9.73499048670675    1.89678456527658   17.28975294622052
C         9.16999816034009    2.67608287807143   15.40437809266915
C        10.14020184294083    1.87358190668547   14.78989006156055
H        10.68150360278844    1.16152591344890   15.39855283566770
C        10.40596721800340    1.95548970504364   13.44322606845278
H        11.15172492991127    1.31771814734475   12.99373356423966
C         9.70639883969559    2.87291804267089   12.66421517743698
H         9.90900208704246    2.94712557984916   11.60567677173325
C         8.76368767836566    3.69013217162423   13.23879236690486
H         8.22281435113900    4.41594811326296   12.64886454343853
C         8.46764780755853    3.62437163815638   14.61537333710557
C         7.95751573178847    2.74896153728824   18.94577515037842
C         8.59751177921829    1.42664297142499   19.39919974794514
H         8.32187580534527    1.23976738153170   20.43387542716010
H         9.68338605905080    1.45715882199046   19.35023891981889
H         8.23742822864062    0.59775127559060   18.79209091698355
C         6.48767440200877    2.74471279063515   19.37249520977912
H         5.98086642214672    1.87787221888160   18.95422290333704
H         6.00412891135293    3.64854229180028   19.01226286712364
H         6.40733951802751    2.70731559005740   20.45572180620374
C         8.68262382780633    3.92918364244685   19.60353135625649
H         8.23589758787507    4.85832264503509   19.26117144158488
H         9.73467290118717    3.92753820808876   19.32545678499298
H         8.60254524047328    3.86620024861817   20.68574193479727

