128
CSD_code = TEVPIW | q = 0 | S = 0 | Stoichiometry = C56H64N4NiS2Si | MND = 4
Ni       -7.69305822625336    6.42423263334461   16.25858538444270
N        -8.13024934809144    4.53131152901561   16.35048200225699
N        -9.57947194758774    6.86550349100659   16.30218317864804
N        -7.24887286610676    8.30937618056617   16.23965618525264
N        -5.81086250762372    5.99060399635401   16.18399337179012
C        -7.28768905192364    3.50518355747116   16.68443688060316
C        -8.01869525712976    2.27643359410105   16.78653675901570
H        -7.59923603015809    1.33557186441914   17.08289178506959
C        -9.29601901536924    2.55281678076641   16.43240743281468
H       -10.13991927678587    1.89353632840122   16.37149507458831
C        -9.35539447440996    3.95994229117513   16.18555565819608
C       -10.54483784335549    4.64271105384317   15.91892478977204
C       -10.62399069034616    6.03203865926463   16.02984851641150
C       -11.86059778731932    6.75067214907735   16.04139231783907
H       -12.81689694567537    6.30912603621163   15.83898415817567
C       -11.56123745513259    8.02671530136306   16.38136412161160
H       -12.22461571953314    8.86143961909320   16.49575864809528
C       -10.13772712878366    8.09110423579598   16.53062211975594
C        -9.44140452336018    9.27062989502064   16.78290346969430
C        -8.06283225694112    9.34310280555796   16.61850853542412
C        -7.31673935088380   10.56519665899923   16.66767089987702
H        -7.70035113991342   11.50854837034712   17.00217816099111
C        -6.07724942530530   10.28189154158470   16.20922182940438
H        -5.25129982515956   10.95515755263237   16.11136845874521
C        -6.03977858222427    8.87274766083479   15.95305569222483
C        -4.89877008179444    8.17691398981133   15.55276511058339
C        -4.79234247169033    6.80385074994010   15.77289600632973
C        -3.55354295511477    6.08108225019343   15.77757764625157
H        -2.59039460676994    6.47489103304099   15.51988469785231
C        -3.82492804553031    4.84162291267616   16.24577419837631
H        -3.14663764738662    4.02552097000621   16.39944565718832
C        -5.23782508133892    4.78347427526722   16.46705144367244
C        -5.90459766001880    3.60490714964946   16.79091843475195
C       -11.71338816157100    3.90627209347104   15.64396268269334
C       -12.71249798057748    3.27127155551746   15.38645086149323
C       -15.48232471579166    3.50213670027927   14.14468906374438
H       -15.74398178984980    4.33007009508260   14.79699383957433
H       -15.05889226585488    3.92177959069905   13.23696638493186
H       -16.40333917382881    2.99367274986902   13.87389009295876
C       -14.97845135053282    1.65029920981399   16.62580819275858
H       -15.21367263792347    2.45951159073594   17.31061503105425
H       -15.89198820395565    1.08806710403714   16.45399237673703
H       -14.27616481603858    0.99137497200565   17.12759806010156
C       -13.78902108532672    0.87882463768577   13.83048499504091
H       -13.34641602969820    1.24592551235791   12.90927685056695
H       -13.06871201871153    0.21313139944922   14.29677396225477
H       -14.65992511133140    0.28639222938118   13.56436251139180
C        -3.73740621385648    8.90543144042211   14.97401070487986
H        -3.05044226562586    8.21139610606695   14.48975738446807
C        -2.59335442010980   10.93324951150295   13.78273095527140
H        -1.83503665578115   10.25239448083944   13.39280756983584
H        -2.63919651852792   11.82735775748239   13.16391720432572
C        -2.34209856526469   11.26819207137350   15.23750636968356
H        -2.98638765714692   12.08306020613177   15.57054205646423
H        -1.30083179442308   11.53050130252806   15.41952248353655
C       -10.20933423824818   10.47976170186414   17.13226570283557
C       -10.98108900300731   10.48557618034644   18.29062223431636
H       -10.97969571655859    9.59806757134307   18.90163198465478
C       -11.71337236405066   11.60603733007964   18.64475036362455
C       -11.65475860657164   12.72222367533806   17.81161268197541
H       -12.21988668895161   13.59603221088750   18.08729281880683
C       -10.90276594618868   12.74165883471718   16.64686365844703
C       -10.18340710257031   11.59868995134273   16.31506939489177
H        -9.60514305555188   11.55588896469383   15.40471819601242
C       -12.57258091678312   11.66289141378566   19.89939703034075
C       -12.53924931543750   10.35502006316123   20.69477739870527
H       -11.53057639928586   10.12606217396553   21.03046788370754
H       -13.17221800495624   10.45003535983493   21.57496402357625
H       -12.91351630565237    9.52491041066786   20.09999112128438
C       -14.02873851060103   11.93980170591759   19.49951998414269
H       -14.12766003095672   12.89309780763252   18.98778318805712
H       -14.39134540854387   11.15712738031265   18.83624930271658
H       -14.66184779623361   11.96240834311672   20.38411613508541
C       -12.05870541904194   12.78857557339800   20.80777127736177
H       -12.12357600757031   13.75611416477646   20.31760162611447
H       -12.64699720156906   12.83069281945158   21.72208190284611
H       -11.01898892835440   12.61003984029691   21.07416443630208
C       -10.83503343964604   13.95023215701460   15.72500058116941
C       -11.39302871831060   13.55695629550975   14.35020702950271
H       -12.42408208146086   13.22213029498703   14.44493756860864
H       -11.36790706268417   14.41102069859218   13.67653892294599
H       -10.81412723509794   12.75339913378356   13.90356746191104
C       -11.64210951552387   15.14225870057291   16.24653342865363
H       -12.69887426487131   14.89708954723158   16.32517484210914
H       -11.27627292597294   15.46841569670948   17.21769771906813
H       -11.54376078276777   15.97614118056914   15.55424516914682
C        -9.37081312724657   14.39075101142059   15.58595649021047
H        -8.75911649353717   13.60626147346403   15.14917147906355
H        -9.30292562874033   15.26870438859320   14.94682131483404
H        -8.96008826906755   14.64279984859468   16.56188180079409
C        -5.10488539250489    2.42054738537199   17.15602742975467
C        -4.31429225637471    2.46222508181784   18.30068093668666
H        -4.32270154263786    3.36684353930563   18.88597385292619
C        -3.55397219920431    1.36659754114991   18.67305817858772
C        -3.60473929668191    0.22652997352354   17.87243297012370
H        -3.01796311391984   -0.62811762099936   18.16248930069177
C        -4.37598354515764    0.15958016981330   16.72212168365251
C        -5.12293365824941    1.27893083544189   16.37090742521362
H        -5.71759925997971    1.28454898516654   15.47012443636359
C        -2.67281018585893    1.36206967301474   19.91362544923183
C        -2.72196011929186    2.68968451574325   20.67470020411355
H        -2.37792955158996    3.51202282941886   20.05161897199717
H        -3.72945043733056    2.90464702225801   21.02303081534080
H        -2.07099896136081    2.63276368897976   21.54496184327354
C        -1.21787969497995    1.10617573597234   19.49576581119857
H        -1.10735791871310    0.14404431773239   19.00322329554481
H        -0.88254273340142    1.88139772050892   18.80980803813474
H        -0.57025115037259    1.11630249843493   20.36997838847143
C        -3.14619829384268    0.25017873012279   20.86021966436149
H        -3.06532561323884   -0.72892959042015   20.39606357130793
H        -2.54364037179235    0.24754911653996   21.76614959185278
H        -4.18586151390692    0.41155294392588   21.13762366545668
C        -4.43741182361017   -1.07705478952966   15.83763449368799
C        -3.91487362115613   -0.71536176326331   14.44042686981770
H        -4.51631416083020    0.06526582111217   13.98300279914233
H        -2.88774115269746   -0.36151073653565   14.50315217779278
H        -3.94001732422188   -1.58924051058618   13.79268263648398
C        -3.59660415686435   -2.23713296503963   16.37759585687461
H        -3.93757123245729   -2.54174382979443   17.36461953160435
H        -3.69104924856551   -3.09272751027427   15.71179991178734
H        -2.54375689045063   -1.96894599834161   16.42873907901357
C        -5.89513483977506   -1.54987654640016   15.74218057452857
H        -6.28210595847570   -1.77779181057376   16.73358871734684
H        -6.53078129500805   -0.79199382473255   15.29274492285466
H        -5.95804051331406   -2.44926166732249   15.13311580202869
Si      -14.25392282659509    2.31650719902929   14.99247407136517
S        -4.21245223223787   10.11033995248316   13.69045878554125
S        -2.72335874468518    9.79594054916472   16.25825383263015

