51
CSD_code = TEVYAW | q = 0 | S = 0 | Stoichiometry = C19H26ClO3PPd | MND = 5
Pd       -2.99595836532108   14.23763726266392   12.60721561628356
Cl       -5.14315470192514   14.60162265363112   13.32818608010566
P        -3.57036092853992   12.11895287735437   12.14009667234247
C        -2.31701897420556   16.18178116675176   13.11126147132151
H        -2.03833142562198   16.00737037536452   14.15615955973145
H        -2.87654430006301   17.09502321243459   12.93478960453858
C        -1.51798669921300   15.65629594435096   12.08848777377569
H        -1.56299447518507   16.08798434951754   11.08722458735523
C        -0.89853268616837   14.40739530113827   12.28850686215807
H        -0.50908935853126   14.18179984375605   13.28476700026623
H        -0.34997212198736   13.95050030573645   11.47320913832700
C        -2.21496185896043   10.92642080423884   11.62631753139020
O        -1.53567003019922   11.60577688700690   10.57179734053277
C        -2.26048398323701   11.72262702739957    9.36268128723832
C        -3.47775946072181   12.65041310342294    9.51661268862117
H        -3.16703473210706   13.63165340166996    9.91175042316172
H        -3.94471213482243   12.77596715570241    8.53780587814997
C        -4.45900321278508   11.99656090036399   10.49580052882418
C        -2.78211593878724    9.59813544233179   11.14242058595352
H        -1.96458546272614    8.91208947540669   10.91035989122767
H        -3.42269375512757    9.15906581585699   11.90758126556763
C        -3.58400626932959    9.85452264799189    9.85744313717837
O        -2.72628356024388   10.46596280741462    8.91588946708154
O        -4.71912874132003   10.64859399811768   10.12510814420959
C        -1.22741390244660   10.74716102878793   12.77122571458141
H        -0.33297886801065   10.23837322959040   12.41900927181338
H        -1.69066450876673   10.16489251250420   13.56519056034252
H        -0.94576049189568   11.72638929436362   13.15965477395955
C        -1.27626179853330   12.24482877040928    8.32108147680697
H        -0.42970390908195   11.56746547252328    8.26700848263907
H        -0.93237078638083   13.23148536371054    8.61426511305775
H        -1.76277786039159   12.28954131041406    7.35258462827218
C        -5.78810114181712   12.73537208739776   10.53933584086048
H        -6.26527341733352   12.70423820594655    9.56222319899936
H        -5.61364046535751   13.77114426184119   10.83526000883128
H        -6.44706784793996   12.27545540258652   11.27199238239961
C        -4.09609416014552    8.56027460975912    9.23413840602264
H        -4.67092883980652    8.80361778913958    8.34612902865482
H        -4.73163889985801    8.04247620118123    9.94518795289927
H        -3.25470538122594    7.93409646479973    8.95698704883580
C        -4.51860457004729   11.26616159074020   13.42011553663838
C        -4.22212464537772   11.68764427805843   14.71594089266696
H        -3.49259612725317   12.48919110281246   14.85211068096932
C        -4.87235777442707   11.12248891060982   15.79494042441644
H        -4.64844987743034   11.45227952339486   16.79841109072960
C        -5.82809534046780   10.14017719444703   15.58292176272252
H        -6.34505816368524    9.70236208379864   16.42400244508770
C        -6.13532774644449    9.73061244366865   14.29586222665496
H        -6.89282462693771    8.97704647148426   14.13642767468244
C        -5.48442543544489   10.28863622458917   13.20869783281317
H        -5.73687023636450    9.98413541181739   12.20332300829869

