43
CSD_code = TEWDAD | q = 1 | S = 0 | Stoichiometry = C20H16Cl2CoN4(1+) | MND = 6
C         2.85054608188715    3.30083049883324   12.24924821177734
H         2.18891019138476    4.15673450581799   12.25422902437015
C         3.53733922566074    2.93994477717015   11.10120188886268
H         3.41623615526343    3.52305661611490   10.20308743461353
C         4.35629901110883    1.82328468834120   11.13203916193797
H         4.89512629949931    1.50486666402246   10.25349807708292
C         4.46403747513455    1.11448903806926   12.31663661575488
H         5.08984388936265    0.23937663762866   12.36853288937139
C         3.74262820263881    1.53156917449889   13.43075648621867
C         3.75712277695300    0.85127932298691   14.72423324713345
C         4.49841828477602   -0.29413355905653   15.00281638201959
H         5.11947775712178   -0.74050727122107   14.24460111469349
C         4.41963739850237   -0.86390097032662   16.26058208552169
H         4.97592171824602   -1.75825633271555   16.49297051408155
C         3.60862367973168   -0.26368870367482   17.21173890088828
H         3.51558084996863   -0.67079915009842   18.20514622910876
C         2.90366377626543    0.87481488191486   16.86305562563821
H         2.26240334640448    1.35717004584900   17.58697415576762
C        -0.33183434517455    2.42637646179367   16.76417682098699
H        -0.57083244162018    1.58503361455304   16.12740273046115
C        -1.17007433539496    2.79024920127583   17.80571611702221
H        -2.06870095558875    2.22416782700842   17.98835230149108
C        -0.83809252852407    3.88807748032238   18.58226642982521
H        -1.47402283008247    4.20834055487910   19.39250801177558
C         0.32801261595479    4.57574472952122   18.29145656014067
H         0.60876892555104    5.43603521620070   18.87547995361921
C         1.12126207374878    4.15711439648985   17.22794014658096
C         2.35723223284171    4.81682608597083   16.81178265251164
C         2.89617723539086    5.94150480096161   17.43119603519666
H         2.40427973629956    6.38585497761755   18.27996663685452
C         4.06427899908020    6.49349576453143   16.93754992220930
H         4.49131457914887    7.37200570240821   17.39485363834397
C         4.66969589223629    5.89642030081304   15.84225660645628
H         5.58091931272310    6.29016466547881   15.42276040798843
C         4.07742678095770    4.77887192504694   15.28106461559691
H         4.52945939455452    4.29944262449734   14.42442297882591
Co        1.87664489674958    2.85334971734989   14.93978987079239
Cl        0.62636448761867    1.29523715416540   14.05562625890185
Cl        0.65356388703420    4.45165691081952   14.08990303130999
N         2.94436739304109    2.61714643152111   13.38475201956394
N         2.96805931433957    1.42000287822269   15.65338461280697
N         0.78281484290011    3.09002085551510   16.47657599643922
N         2.95009871630437    4.25112885888090   15.74506759945532

