70
CSD_code = TEWGUX | q = 1 | S = 0 | Stoichiometry = C22H41ClN5Ti(1+) | MND = 6
Ti       -7.36666022957968   -6.40731901673483    6.99387726943816
Cl       -5.95082131049761   -6.79956270701276    5.31631020689683
N        -9.31425987043374   -6.22213697512231    7.94766872735380
N        -7.23109709862203   -4.33032815177015    7.62344324726222
N        -8.78000253469458   -5.42605578370420    5.30903662190859
N        -8.07749030760065   -8.35520617948235    6.98068671204311
N        -6.39775009548306   -6.89169360155699    8.27962854959529
C        -9.36490052655249   -4.99937241469977    8.75171253608712
C        -7.97565978646570   -4.37224318112122    8.89350387038928
C        -7.88320295724890   -3.46050855394691    6.63443848777187
C        -8.07143293160550   -4.13823124217348    5.27115158709127
C       -10.15251846641122   -5.28929115489293    5.81225194995778
C       -10.40314719523057   -6.26554339848135    6.96754006538723
C        -9.35361758211021   -7.42099807378696    8.78446774293558
C        -8.93218981773877   -8.61946334995511    7.97776680965123
C        -9.34338163889227   -9.90658004893938    8.28825694576190
C        -8.83896359689857  -10.97051005806760    7.55376146174172
C        -7.93985129089281  -10.69830320346621    6.53330350257397
C        -7.59041193705980   -9.38319500867518    6.27701830645709
C        -5.37572526481081   -7.51668802911758    9.01938166940565
C        -5.37278895408141   -7.01854693098439   10.48182850983447
C        -4.00528229755324   -7.22511606183972    8.36893137418998
C        -5.59224274473356   -9.04767559558153    9.02268969923217
C        -5.82794617277349   -3.90262835994044    7.91485482366372
C        -4.96404474851190   -3.85327162771519    6.65765720336012
C        -5.72776986687711   -2.56584641351698    8.66152265551289
C        -8.74457267643279   -6.03599685172566    3.95009323949587
C        -9.36818889957075   -5.17523868049557    2.84410362008837
C        -9.39180672987011   -7.42026459336827    3.94262563747696
H        -9.76077957750570   -5.20318952043405    9.75602966346118
H       -10.05514391177471   -4.28839721740017    8.28943906757191
H        -7.38283035009336   -4.97955914103096    9.58550088461089
H        -8.10256359483105   -3.36468545394843    9.31520625533740
H        -8.84427767504934   -3.10757935985501    7.02024566014253
H        -7.28531746230405   -2.56053693356725    6.45534369930071
H        -8.59998651370074   -3.41338358031768    4.63179356917246
H        -7.08689546347131   -4.32872494628928    4.82962891767266
H       -10.89015451258294   -5.50136297181936    5.03299473996724
H       -10.34418101835753   -4.26189218717866    6.13505945363293
H       -11.37002789716033   -6.03895378403037    7.44513111592460
H       -10.46247601857637   -7.28117735416007    6.56543067496372
H       -10.35107292213159   -7.57475108693694    9.22874697071459
H        -8.61351127105761   -7.29708777511680    9.58679064826119
H       -10.03823220115479  -10.07263684647788    9.09698736343753
H        -9.13836589619528  -11.98223966609068    7.77566726935411
H        -7.51597766314794  -11.49241261211479    5.94052368841735
H        -6.88994412271976   -9.13916020383617    5.48484382137010
H        -4.58724314983349   -7.51778394196774   11.04132440812644
H        -6.32878961596299   -7.23595655115308   10.95710761154083
H        -5.19465979876435   -5.94521862038192   10.52442095118013
H        -3.23664086103319   -7.84713880746234    8.81862918498335
H        -4.06250148047417   -7.44202245140303    7.30308875283238
H        -3.72932225864109   -6.18097456097373    8.49725509295547
H        -4.81951326829417   -9.52884260683627    9.61531099187307
H        -6.56464306792713   -9.29650592637135    9.44686165778047
H        -5.54023187029488   -9.42467937987904    8.00277968305282
H        -5.42546805661466   -4.69586595934689    8.55582263404426
H        -3.92673399070822   -3.71349273076154    6.95299804454838
H        -5.02584130074918   -4.79276851828769    6.11034647425493
H        -5.22897133019612   -3.02537898020493    6.00283815892799
H        -4.68505904860278   -2.26232765754548    8.68885330469728
H        -6.06857248283795   -2.64007430287766    9.69065186181104
H        -6.28435259422884   -1.77389117628756    8.16510390706594
H        -7.68381989474477   -6.17096101763270    3.71143842183384
H        -9.40262647511491   -5.75996452793544    1.92920406386277
H       -10.38624414363308   -4.87046944903532    3.07888613611412
H        -8.77778026582999   -4.28685520269948    2.63756381607238
H        -9.13661970043488   -7.92097065586590    3.01220121111294
H       -10.47758506553112   -7.36860251872322    3.99982435361135
H        -9.01521467850193   -8.03030856788771    4.76081278184145

