67
CSD_code = TEWKUE | q = 0 | S = 0 | Stoichiometry = C26H34I2N4Zn | MND = 4
Zn        2.94676455582395   -0.22913966432818    6.10039426765590
I         1.45036138197336   -2.28710655380896    6.02699483774079
I         2.40687222440513    2.01468114424859    5.03395302909480
C         2.11031949670082    0.16303516214037   17.67523724967192
H         2.06820412221831    1.20364857265485   17.34225142906169
H         3.15101678905179   -0.17451504311840   17.63954819897977
H         1.77751354023921    0.12735211300417   18.70938926633580
C         0.23497059277220   -1.45596983864118   17.51293419205648
H         0.32452639589231   -2.51227332684258   17.24626942706370
H        -0.76628830726686   -1.10886513005218   17.23831286618356
H         0.34040357061052   -1.37167926931363   18.59152590823534
N         1.25944005163166   -0.67380285037114   16.86511123922706
C         1.40309733120441   -0.70636753048812   15.51171600026715
C         0.52994973493865   -1.45155099672170   14.69692695261969
H        -0.28140047943613   -2.00868693509938   15.13467574209611
C         0.68306543608625   -1.47916383348828   13.33432045794555
H        -0.00762615217731   -2.05957830415600   12.73941779447726
C         1.70841578536449   -0.77263812527885   12.68707690496815
C         2.57802265583571   -0.03194676716888   13.50104001204754
H         3.38493468185651    0.52821676502662   13.05381056335092
C         2.43376038422745    0.00269398538365   14.86468182681713
H         3.13463093315487    0.58481552159159   15.43994869560013
C         1.81113066451202   -0.83990037041212   11.26113684853023
H         1.06249422796189   -1.45585199251188   10.77501648326415
C         2.72645077355478   -0.22971317128641   10.47057495674602
H         3.49133954444795    0.39881653084828   10.90030350999206
C         2.67803697740229   -0.39551746133094    9.05635745883616
H         1.85688837389798   -1.00537530861582    8.69328407675745
N         3.46834537305612    0.07440179460328    8.15881657698834
C         4.60116124792890    0.88243359125039    8.56068003395247
H         5.13400384101504    0.39988083207835    9.39101443915723
H         4.22360297163572    1.85012637454318    8.91763402436145
C         5.58461685309733    1.14032897528843    7.42280439944823
H         5.04282443025423    1.46287921609330    6.53569019437704
H         6.23105969962960    1.96917827995613    7.72215713218641
C         6.47648850397350   -0.05130129810494    7.07823499566919
H         7.07929321616505   -0.32375830368625    7.94874063300493
H         7.15802877166978    0.25180748229507    6.27867990679248
C         5.71715280388017   -1.30224394673512    6.62117683013356
H         6.44651653790557   -2.07444908776380    6.33544500206091
H         5.11951378861677   -1.68526796514871    7.45296644480894
N         4.82732219671993   -1.00705882104977    5.53268944692560
C         5.11382725795583   -1.43458704214029    4.35767595271836
H         6.01956676536381   -2.03098266364305    4.20299470248476
C         4.29917950501123   -1.18484111943712    3.22699573777485
H         3.41781850650558   -0.58059813140282    3.38073247878112
C         4.57596713003939   -1.68194157590154    1.99824837460614
H         5.45791833723603   -2.30438481842181    1.88688148938638
C         3.80653655846616   -1.48376414577237    0.80950850363766
C         4.17225639308528   -2.14867745408398   -0.37084699767413
H         5.03619639699251   -2.79897664250273   -0.36018903708453
C         3.46173562753541   -2.00481308002989   -1.53526322072886
H         3.78974442145713   -2.54388325373222   -2.40874446136892
C         2.33000894853825   -1.16945876231930   -1.59660317543585
C         1.96815111569792   -0.49229802304496   -0.41573613211253
H         1.11329635817738    0.16245182258542   -0.40458385617356
C         2.68074400605964   -0.64735214901709    0.74468884738225
H         2.36178170301426   -0.10064472446610    1.61730017414965
N         1.61935017242427   -1.01810165383077   -2.74782223208971
C         0.48156487971339   -0.13207572839410   -2.79565969043116
H         0.08368604106851   -0.10500922954682   -3.80696341717621
H         0.76724988802660    0.88551073156355   -2.51614774725188
H        -0.31351347033245   -0.46915959284714   -2.12360678312535
C         1.96989968084389   -1.76529554118971   -3.93026100425368
H         1.25519398806232   -1.55240002295621   -4.72113854362193
H         1.95020040623088   -2.84161229189591   -3.73584819028458
H         2.96711386037120   -1.49307935303546   -4.28995202759517

