64
CSD_code = TEWLIT | q = 0 | S = 0 | Stoichiometry = C32H24AsBrN2O3Pd | MND = 4
C         3.26279292065433    6.56678539074140    5.42451326687947
H         2.27015275006420    6.67753939751813    5.83452988213026
C         3.67592382978771    7.35551617741977    4.37376032973424
H         3.02623899781636    8.09884364207437    3.93979285841563
C         4.95723030916000    7.19890459360734    3.84984943495092
C         5.81242513600212    6.24365800749791    4.39319005871203
H         6.80784972729443    6.12380814550141    3.98519715343881
C         5.39491224389644    5.45485410072265    5.44467272343044
H         6.04886132014453    4.71257604985929    5.87242266957612
C         4.11503806292705    5.60832301869763    5.97206033301496
C         3.65383492954824    4.77628998040738    7.09204190986893
C         4.60731253573743    2.15194428714518    9.07994810813060
H         5.59715621594992    1.95023478917417    8.67297514785077
C         4.15958432456462    1.32818189270971   10.16129116805027
C         5.04385842960349    0.32951498191269   10.60666349281013
H         6.00390174669424    0.23004078831260   10.12163491244969
C         4.70670139751693   -0.50816068305329   11.63653574662438
C         3.47353136271657   -0.39984132782745   12.27731799919220
H         3.22149401594586   -1.06657192702382   13.08771825385566
C         2.59295093087466    0.56257871990648   11.86303247743168
H         1.62948817660973    0.67336821842532   12.33881127073900
C         2.88801961804308    1.45810740466006   10.80682239320118
C        -2.05533905281018    6.36714268929540   10.18380276823615
H        -2.62680896671519    5.59828216619137   10.69428660059354
C        -2.53289015504701    7.66503601185403   10.11507779684316
H        -3.48366370630644    7.91360365329230   10.56430089378430
C        -1.79394798579385    8.64504531017985    9.47215132752449
H        -2.17051022959388    9.65598220194459    9.42159750769221
C        -0.57081585588762    8.33228542050748    8.90098752536693
H         0.00660693490518    9.09969735207867    8.40632298789451
C        -0.08911572423248    7.03674247734565    8.97162459884905
H         0.87190997272406    6.77106397433470    8.53731080907934
C        -0.83182804153557    6.04554052633183    9.60610434256915
C        -0.25221431137004    2.59415426601456    7.24458586759720
H         0.79938745803014    2.37429247918125    7.49531284944572
C        -0.84128705252269    2.00847309079297    6.13658158334285
H        -0.27196634096719    1.33429285336693    5.51327951999680
C        -2.16184508174920    2.29045080759068    5.82606699013527
H        -2.62047685819730    1.83623361627717    4.96033010166682
C        -2.89382151525603    3.15588420492382    6.62306273540859
H        -3.92280987350587    3.37567713068764    6.37794364421178
C        -2.30698438322469    3.74203903396245    7.73126510907911
H        -2.87373795673776    4.42542812885563    8.35479966655052
C        -0.98134009652424    3.46626202540633    8.04995749519159
C        -0.91839688432060    3.97506305396449   12.32567707215637
H        -0.43919236502434    4.94663442372680   12.42730059144386
C        -1.46197696283747    3.33800957677847   13.42644414535283
H        -1.42007166656909    3.80633151387507   14.39921776164294
C        -2.05198186817842    2.09219483399935   13.28181508352459
H        -2.47189886839401    1.59118573901995   14.14151918340093
C        -2.09441385209415    1.48542722695312   12.03761068870129
H        -2.54531149291559    0.50957743642317   11.92813054078309
C        -1.55340169820696    2.12370994218093   10.93451372311754
H        -1.57283151100879    1.64595263505980    9.96009081274106
C        -0.97178712827079    3.37795565661671   11.06935817752214
N         3.93119611826174    3.11983432816271    8.54438707372126
N         4.45407729595617    3.82655078642710    7.52056844733658
O         2.49243290307979    5.01259010883392    7.59597492970220
O         5.32953800719423    7.99368202889662    2.81394588200950
H         6.23317394326875    7.78468781381930    2.54694081426629
O         1.97603654341125    2.32905258170405   10.50750436039844
As       -0.06697679093310    4.24746306278856    9.58653240411183
Br        5.93981330160441   -1.84787358927360   12.20755434988765
Pd        2.15971281690444    3.70186577053144    9.07917964663034

