54
CSD_code = TEWLUC | q = 0 | S = 0 | Stoichiometry = C28H19NO4PRe | MND = 6
Re       11.34662080533811    0.70939655045194   11.17664966211969
P         9.22272451480354    1.67266810056939   11.86543255989572
O        14.34522703079848   -0.03564653974464   11.01557926468227
O        10.35713542001401   -1.76431037494663    9.60665898850548
O        11.41289105923496    2.57186071236731    8.70670022332562
O        11.32806435976194   -0.37938441206316   13.07307530012470
N        11.70542850000917    2.37097545453854   12.61931031881062
C        13.23281302098012    0.22381664419577   11.03551373711870
C        10.76403890521154   -0.84291293863662   10.15383147157332
C        11.39167385835938    1.84745896351897    9.60011237434807
C        12.07768581476109   -0.17697419122401   14.08096014779755
C        12.29781231028923   -1.25371687567312   14.98664919529367
C        13.09235666893665   -1.12351844203741   16.08772464383945
C        13.69656524757733    0.10398648444220   16.39715861636903
C        13.46596150522126    1.18234898177477   15.59177989817523
C        12.67176447768991    1.08745905118830   14.43025574115770
C        12.32023446462533    2.28245255843463   13.75985956526676
C        11.06900608431530    3.57047722320382   12.27679340689254
C        11.63753976218059    4.83388817025045   12.33311665207950
C        10.87450902102792    5.93442031678721   11.97638325370106
C         9.55384596646796    5.78796378486025   11.58430265410792
C         8.97195192513938    4.52999478992645   11.53613422654067
C         9.72574270975942    3.42372742840809   11.88259443205250
C         7.63970316071442    1.67211122445877   10.98507327704323
C         6.44710330257465    2.02236953398871   11.60942705411684
C         5.27179834365144    2.03159893287052   10.88064040623005
C         5.28351482382327    1.69216978364508    9.53661190124673
C         6.47083708816268    1.33779285255118    8.91556854410769
C         7.64957197938910    1.32400263759722    9.63837659647801
C         8.79281159932166    1.31596419068140   13.59128444912235
C         8.41558364791145    0.00453033636423   13.87234185334962
C         8.20153601910696   -0.38656462747533   15.17904216487830
C         8.37187686365008    0.52443727943787   16.21049199351610
C         8.74675092777227    1.82814210675416   15.93334716844687
C         8.96263686252309    2.22771747642866   14.62598121508391
H        11.83101192912508   -2.19595682186993   14.73965987612637
H        13.26040253783446   -1.97451337725558   16.73264870504120
H        14.32470288778837    0.19230152478168   17.27020695530228
H        13.90641200871198    2.14241461390218   15.82790459449416
H        12.48838955762263    3.20852892499362   14.31949719564096
H        12.67265300478293    4.95095999652810   12.62040370897340
H        11.32007057922371    6.91765289131060   12.00271345208268
H         8.97523700654092    6.65642279065017   11.30831360594699
H         7.94376140845702    4.40786370694517   11.22600335866010
H         6.44420115137782    2.28138746497322   12.66019841569168
H         4.34340499287116    2.30322658723911   11.36166060866282
H         4.36206932653505    1.69958926568697    8.97352830887254
H         6.47625609932708    1.06798507334919    7.87020000483646
H         8.58775156898606    1.03975370962764    9.17540181104152
H         8.31378497402991   -0.70118515648594   13.05747351818216
H         7.91675739681894   -1.40495469606361   15.39815447324121
H         8.21905336842972    0.21535632401974   17.23390883592782
H         8.88190107119380    2.53598157692085   16.73846721486251
H         9.26296107923586    3.24588243285504   14.41169239901667

