31
CSD_code = TEWMUD | q = 0 | S = 0 | Stoichiometry = C10H10N4NiO6 | MND = 6
Ni       -0.00019669287228   -0.00007920949757   -0.00006178997300
O         1.65623829957060   -0.16420470083327    1.80480417957250
O        -2.13220480292275    2.34462102197544    2.24749499732091
O        -1.36564976749421    0.54665169263539    1.18241865936760
N        -0.52484979704348   -1.80338177077799   -0.00054386364808
N        -1.14551256167205   -4.45649722158185   -0.48302702182185
C        -1.55542092711065   -2.38288836960480    0.60683602304934
C        -1.85330583817789   -3.71840583637361    0.35546788670988
C        -0.12674059401031   -3.87287108812044   -1.08784596117521
C         0.19767842787340   -2.54009116816436   -0.85486521741289
C        -1.34841292065344    1.77994083628052    1.51413957465284
H        -2.13515862586703   -1.77377124357894    1.28716761744393
H        -2.68539060319345   -4.20704033890397    0.84216477703258
H         0.45801399535052   -4.46150639972060   -1.78027383089574
H         1.33253180745029   -0.74476558160809    2.49937934541358
H         2.41253770372548   -0.58824269272704    1.38587832251926
O        -1.65758121719117    0.16496061664414   -1.80433022166737
H        -1.33342929138471    0.74778046377692   -2.49692170932422
H        -2.41332142940228    0.58821465833183   -1.38387952136454
C        -0.19763013682667    2.54010191540143    0.85440401161259
N         0.52470781206807    1.80304781195781    0.00022792856327
O         1.36539955093365   -0.54643234275857   -1.18226697539509
C         1.34811921380917   -1.77948879855890   -1.51454312733020
O         2.13263103834186   -2.34408953913450   -2.24742353225847
C         1.55552567666505    2.38205833940386   -0.60719967705775
C         1.85388835867387    3.71748774602844   -0.35601577272162
N         1.14627272826822    4.45596580056196    0.48228679750169
C         0.12728335345872    3.87280369391585    1.08719240080543
H        -0.45734499862827    4.46186514429999    1.77936544805443
H         2.68628005456702    4.20568599908064   -0.84263342367379
H         2.13504218369313    1.77257056164959   -1.28739632389940

