77
CSD_code = TEWMEP | q = 1 | S = 0 | Stoichiometry = C34H34MnN4O4(1+) | MND = 6
Mn        4.96488168172734    2.81307812991749   -0.00049355358056
O         5.38869329245437    2.69567298354382    1.76238587081791
C         4.59583878552288    2.79237559439919    2.80314639140039
C         3.43143298820081    3.61084083291012    2.81651979179552
C         2.68627056981401    3.71323876824951    3.99196277110157
H         1.80405028581099    4.33387026058900    3.99976654503729
C         3.04231786101051    3.02345687330650    5.13099641492362
H         2.44289796654011    3.10671255199081    6.02344877494918
C         4.17844379167106    2.22191362538715    5.12546782091121
H         4.46307671610799    1.68238848165137    6.01568142622548
C         4.94487811567617    2.11751050097273    3.98873326070038
H         5.83335241923283    1.50252316169993    3.98029544023520
N         3.62156992976546    4.12978846527546    0.44234607834358
C         3.05345969821679    4.35840107875684    1.63480051131397
C         2.12010365086819    5.40510532619706    1.50285994166583
H         1.50685550232749    5.81772748232047    2.27482312847932
C         2.14574480988390    5.78486561522974    0.17260239837008
N         3.06981730420716    4.99253173996599   -0.42269590964670
H         3.33177265078634    4.94845655396470   -1.39789717848220
C         1.38791663341002    6.79990985141999   -0.53759313944180
C         1.23638308686770    6.74674918435682   -1.92433769389475
H         1.66782758555483    5.93309857708953   -2.48963921718195
C         0.50741703581377    7.71696302404082   -2.58506174365341
H         0.39277485042933    7.66308272963035   -3.65699433608073
C        -0.07904075744091    8.75286134529989   -1.87627769459971
H        -0.64775770701128    9.50843931028451   -2.39536892298993
C         0.06453337783169    8.81345611559819   -0.49949269981459
H        -0.39078923301319    9.61875417201872    0.05603382985483
C         0.79094270031283    7.84592065176306    0.16732232930182
H         0.91042442817251    7.90384952084425    1.23777833394579
O         6.54868169382630    4.34542823863081   -0.32723120049014
H         7.39860821307198    3.98658171874090   -0.03091425807534
C         6.52522422805850    5.72260849393600    0.05339978337364
H         5.58202282234755    6.12599193241067   -0.32269918818907
H         7.35138741967307    6.23445775987864   -0.45593711786003
C         6.62717365421802    5.90300536737249    1.55938976945052
H         6.50424784944625    6.94998758191611    1.81913399568903
H         7.59670511968160    5.56815521528127    1.92299893334367
H         5.84953906977823    5.32445135877615    2.05665626203048
O         4.54100866233890    2.92996178630550   -1.76340511705307
C         5.33356228932573    2.83271427886246   -2.80433762232917
C         6.49801659111252    2.01430808869052   -2.81760770939723
C         7.24286079246055    1.91132884062274   -3.99320244189113
H         8.12512586352228    1.29075767797755   -4.00091341233723
C         6.88642353508645    2.60043289416968   -5.13252340266349
H         7.48561455002212    2.51675880809087   -6.02509068572460
C         5.75018649146047    3.40181915267825   -5.12713535870320
H         5.46524665777405    3.94081793010537   -6.01757173711276
C         4.98408268659447    3.50680963931848   -3.99023180211967
H         4.09553943130036    4.12169450822441   -3.98187189921194
N         6.30832686457781    1.49647309906103   -0.44317958343787
C         6.87634127500902    1.26738652588060   -1.63559392909613
C         7.80993630259486    0.22093842243706   -1.50323897446810
H         8.42312322968494   -0.19199861061972   -2.27508280229006
C         7.78458703195908   -0.15809741948567   -0.17276570383909
N         6.86040797133333    0.63432525617023    0.42222857670142
H         6.59857569310860    0.67890750784161    1.39744445221484
C         8.54284907215834   -1.17238417811962    0.53804861951221
C         8.69448420082345   -1.11808585902452    1.92476003964689
H         8.26279217289615   -0.30416359191050    2.48946165738227
C         9.42403837576629   -2.08738587693975    2.58617422257224
H         9.53864127806831   -2.03267985005451    3.65801658097617
C        10.01092381563515   -3.12356729863590    1.87812198121761
H        10.57999887458148   -3.87850535164319    2.39774745318918
C         9.86714325920491   -3.18536232839594    0.50137828090556
H        10.32279420912315   -3.99085494999376   -0.05355392313826
C         9.14022594911429   -2.21867435130053   -0.16612325234153
H         9.02068367890724   -2.27747659128896   -1.23649514841109
O         3.38096716961342    1.28073038126630    0.32613839188462
H         2.53134579535414    1.63884545833682    0.02810955458960
C         3.40550248856515   -0.09700070538047   -0.05237137290538
H         4.34829948713158   -0.49944135839154    0.32575026379544
H         2.57879063804487   -0.60839770752921    0.45652719903518
C         3.30585180970296   -0.27971530875907   -1.55824596498789
H         3.43030650752679   -1.32693853273186   -1.81629728930808
H         2.33647048080176    0.05353508280000   -1.92371560422529
H         4.08354472686262    0.29897435574421   -2.05526848591413

