83
CSD_code = TEWNAL | q = 0 | S = 0 | Stoichiometry = C39H39IrN2O2 | MND = 6
Ir       -6.74063839413501    5.63780674559208   -3.68464299069501
O        -8.61918549558751    5.22057858330984   -2.59690389096153
O        -7.02207877776691    7.68926700827596   -2.91453654840059
N        -5.49693241884017    5.27320500654712   -2.14880737975905
N        -7.85887597555472    5.85723946108830   -5.34444508405519
C        -5.90136705000775    4.93064260813922   -0.93077147474077
C        -5.03071681656189    4.50862571209723    0.05152342430607
C        -3.68909804661617    4.36990543123818   -0.27662509186423
C        -3.24711860937242    4.71137679094003   -1.54206676812856
C        -4.17724867557587    5.22488639218325   -2.46236127756576
C        -1.82703906171564    4.44643992855333   -1.94205906406116
C        -0.99818675093160    5.71543122142378   -2.16298266177170
C        -1.70041096774831    6.73768685933885   -3.05769573129677
C        -2.47383298320503    6.08806111737693   -4.20819679966125
C        -3.87953569916728    5.72395088938129   -3.79102315738891
C        -4.96442704818810    5.98403188963863   -4.55787172685463
C        -4.90005658276216    6.49527783049068   -5.92322417728316
C        -4.39565164959903    5.71588733110893   -6.96424598037315
C        -4.42066568169688    6.17849660233497   -8.26701257694613
C        -4.94433688009380    7.42788619048336   -8.55394227455516
C        -5.43515205545328    8.21764606763595   -7.52603134189645
C        -5.41629119468370    7.75709350590094   -6.22479814334676
C        -8.48763853011629    6.97984187607539   -5.67169422874387
C        -9.16011525719577    7.13346576773674   -6.86565142700790
C        -9.11565829481528    6.09164580288381   -7.78057376901939
C        -8.46231231801857    4.91180473998113   -7.46534599139029
C        -7.87131160187455    4.79862891747254   -6.19412053024065
C        -8.31378987816695    3.85140177510594   -8.52087425370375
C        -6.87723953258987    3.32090645141129   -8.57761841023601
C        -6.64375744247514    2.13410604372514   -7.64266774055788
C        -7.38053223110292    2.27267251656151   -6.30927462903307
C        -7.21792311091514    3.62047327538168   -5.65673805307461
C        -6.57551024135291    3.80100407497225   -4.48202472180616
C        -5.82325838729523    2.76810865837086   -3.77674282845115
C        -4.54977478099056    2.39629323573848   -4.20917797785593
C        -3.78982612793933    1.50425681536102   -3.47716668972960
C        -4.28683940407077    0.96336930392172   -2.30322353492540
C        -5.55611762636590    1.31343367090026   -1.87140575266140
C        -6.31702742405369    2.20816482753441   -2.59749649487528
C       -10.60065079251807    5.49114544193868   -1.33430962084285
C        -9.31952087136302    6.03341239343889   -1.94818815537887
C        -9.05023990743948    7.38465925531704   -1.70828057246057
C        -7.94788249225026    8.10524862080822   -2.17742741528533
C        -7.87912915431929    9.56514989435350   -1.75763797776249
H        -6.96311138310847    4.99384509279585   -0.73926968625242
H        -5.39415694176414    4.26134883529273    1.03588951916700
H        -2.99039374308122    3.98058886167940    0.44995069305366
H        -1.34605798764340    3.84130203159714   -1.17061774305841
H        -1.84224299444767    3.85608637497539   -2.85970562783136
H        -0.77576279044626    6.17694196407073   -1.19840918308400
H        -0.04753735910679    5.42331813977740   -2.61544271705026
H        -2.39984809334169    7.33006658577024   -2.46476178071800
H        -0.95050162100165    7.42324070421157   -3.45806409766905
H        -2.55152422208001    6.79204285334472   -5.03891043396760
H        -1.93001022643441    5.21585466321450   -4.57882292131892
H        -3.99518722818283    4.73789885255257   -6.74127911369479
H        -4.02846807887767    5.56271355809788   -9.06460059813299
H        -4.96706780287730    7.78572587699063   -9.57296740767835
H        -5.83694359348457    9.19681687780429   -7.74529765374294
H        -5.79554505277429    8.36565249959819   -5.41819443609467
H        -8.44724496481633    7.78446839912462   -4.95150079516177
H        -9.67622527440368    8.05299342402843   -7.08986660365216
H        -9.58240770057896    6.20354106864971   -8.74895005386809
H        -9.01113095623631    3.02827313372861   -8.35201138080451
H        -8.57440376014880    4.29862363485528   -9.48274545109459
H        -6.64141607991333    3.01641629014015   -9.59955230202472
H        -6.20252650586243    4.13613702682155   -8.31126181476941
H        -6.97912538665087    1.21264978755888   -8.12578859591189
H        -5.57330107149384    2.03651302353236   -7.45472519752390
H        -8.44703233543555    2.08806108163144   -6.45870717028893
H        -7.01188377113712    1.50974774482034   -5.62143343090995
H        -4.16072948121888    2.82809779160801   -5.11928378528178
H        -2.80337944545391    1.22649101430451   -3.82205914891176
H        -3.68919995092400    0.27055855416619   -1.72886094851237
H        -5.95020225045376    0.88793917061301   -0.95930407867489
H        -7.30338302428241    2.49154100566404   -2.26261579031405
H       -11.45844340860969    6.03674747593380   -1.72217622659004
H       -10.70572976816436    4.43658434895504   -1.57752190905069
H       -10.57924652033577    5.61278460766613   -0.25294162123411
H        -9.76261262868394    7.92366211772714   -1.10094240955327
H        -7.84370410794261    9.63900938527533   -0.67225944285926
H        -6.98842355434124   10.02613674029437   -2.17861103908145
H        -8.76208671177702   10.09786286905847   -2.10741612350142

