31
CSD_code = TEWNEO | q = 0 | S = 0 | Stoichiometry = C10H10N4O6Zn | MND = 6
Zn       -0.00008058900674    0.00008181665323   -0.00003291995505
O         1.53490521346989   -0.22094443671160    1.66060401730906
O        -2.08599014757358    2.54125320082119    2.15558394240218
O        -1.38069815831178    0.67178623223611    1.17138334754143
N        -0.57764169913138   -1.95719331755448    0.06685086428958
N        -1.21395235241091   -4.57241706189478   -0.53218203640677
C        -1.61261645116452   -2.55071689603354    0.64663083639751
C        -1.92442300942388   -3.86873495841330    0.33622457393883
C        -0.18593212648326   -3.97170308173936   -1.10348297193945
C         0.13982941674710   -2.64859076780192   -0.81185215625879
C        -1.31902272508356    1.90687577277384    1.45949989103407
H        -2.17847678717779   -1.95739377070569    1.34957865289956
H        -2.76353549397386   -4.37515316957932    0.79186081345787
H         0.40002249307181   -4.53706431815882   -1.81376384561522
H         1.33148957323521   -0.76373915775694    2.42837742322474
H         2.32375317381533   -0.57944439590516    1.23899442927252
O        -1.53560102085462    0.22051680813879   -1.66036148374158
H        -1.33305984589166    0.76412366444890   -2.42701938080475
H        -2.32419980549488    0.57786564605768   -1.23806280024664
C        -0.13960523387191    2.64879911406918    0.81171229360008
N         0.57776255710775    1.95725607268667   -0.06696007897450
O         1.38074144675513   -0.67144032771485   -1.17130980729390
C         1.31920859173008   -1.90651141549165   -1.45951955243723
O         2.08627524642490   -2.54075936371222   -2.15560503480357
C         1.61276001747260    2.55063315766779   -0.64685439052069
C         1.92469258075753    3.86865834352163   -0.33660042898255
N         1.21432932054561    4.57248435594929    0.53177628704582
C         0.18628894714570    3.97191397812378    1.10319366913907
H        -0.39957453168996    4.53740167736083    1.81344885670369
H         2.76382114245153    4.37496281884357   -0.79233699341993
H         2.17853025681331    1.95719377982144   -1.34977601685529

