94
CSD_code = TEWNIT | q = 0 | S = 0 | Stoichiometry = C48H42IrN3 | MND = 6
Ir        3.80545702384546    4.85038292007550    3.36104865926004
N         2.90303648420171    3.01900540181656    2.74899289490553
N         2.00805299075162    5.99602046453904    3.22523925004639
N         3.64094629794529    4.47283524314258    5.45575452691563
C         2.37083108159674    2.07004180203135    3.50821509579773
C         1.77698429543574    0.93719730946638    2.98857822972186
C         1.73632410462343    0.78538669634518    1.60581907990812
C         2.29051586740698    1.75789219050625    0.79766524127311
C         2.87733073356826    2.88320277865831    1.40543018499270
C         2.28637377617061    1.65112155251811   -0.69795188902943
C         2.27209856605912    3.03797704597121   -1.33405772374275
C         3.47703847167756    3.84019620197333   -0.85245193262067
C         3.47745711682763    3.95355080484134    0.65253395279206
C         4.00860350866587    4.99050990151787    1.34776076791002
C         4.63339405835745    6.10698890966699    0.63204364868879
C         5.91782244330345    5.98211830541413    0.10304565619008
C         6.51863892496013    7.04470581908047   -0.54531693581020
C         5.84708063892114    8.24772434271668   -0.68965297916445
C         4.56369072170754    8.37734868469575   -0.18396932836713
C         3.96215661387322    7.31944020632862    0.47042235013405
C         0.78687692463665    5.58010299833647    2.91612158536768
C        -0.30410820565635    6.42466336664571    2.86550681164887
C        -0.10959154431782    7.77432652183923    3.14199505421212
C         1.15266394884300    8.22757175872800    3.47071962518009
C         2.21038042613132    7.30034045091945    3.51050946188063
C         1.42455121989527    9.67084403032028    3.77500532449957
C         2.86837308565799   10.03026062138511    3.43710892918198
C         3.82089913444360    9.11458500544293    4.19905939282623
C         3.56277812729383    7.67218041308096    3.83842449586269
C         4.50891776370853    6.70116810952740    3.80471661757672
C         5.90103833809842    7.01745504688339    4.13758888469035
C         6.75735629476935    7.56500998030675    3.18227913072648
C         8.07628380427896    7.83800241436055    3.49314069327802
C         8.56651676574952    7.57392294591664    4.76163136327819
C         7.72148855090789    7.04160861002784    5.72185441196051
C         6.40193866548771    6.76933407857157    5.41569683395356
C         2.65632053674930    4.80966713935471    6.27857399315759
C         2.66891106266727    4.51291959860555    7.62675354599677
C         3.76596855685249    3.83072369388555    8.14434612989892
C         4.80409983266778    3.47614592806922    7.30644678472273
C         4.71464016250884    3.81482248633777    5.94341141749544
C         6.01719867604238    2.74723308209130    7.80084014071838
C         6.60091998899391    1.87289815450362    6.69500647835263
C         6.95143607057625    2.73507479361632    5.48642235287172
C         5.73918796461973    3.48387962924972    4.98800799459669
C         5.54873134835953    3.87064030521701    3.70135470289299
C         6.55689659798367    3.55132467439806    2.68602627765652
C         7.75194674707829    4.26728708263031    2.62028124606680
C         8.68952976954936    3.98515193959622    1.64480119159096
C         8.46086082011990    2.97534453771762    0.72446958910143
C         7.28526639121417    2.24498503512882    0.79153739317752
C         6.34212080775540    2.52945827730293    1.76046628251670
H         2.42064818069970    2.22290390694286    4.57854407540812
H         1.35451499680704    0.19167100698945    3.64344997058029
H         1.27548671633092   -0.08811857340726    1.16595549841572
H         3.18899837531635    1.11958161856649   -1.01754894195876
H         1.42505176452656    1.06353163955418   -1.02515733899870
H         2.28897204237260    2.94873345511270   -2.42208564499345
H         1.35298225821638    3.55745001958819   -1.05149076941074
H         4.39738392371959    3.34229769929505   -1.17500731747970
H         3.47360359612999    4.83838957950966   -1.29408145479207
H         6.44318296936624    5.04761471879201    0.21733061711735
H         7.51775720674774    6.93315304029407   -0.94197312131407
H         6.31804216458780    9.07837706460120   -1.19531580158820
H         4.03006986861391    9.31044391202067   -0.30350257091851
H         2.95836595924645    7.42200332507329    0.85685236496611
H         0.67580115367748    4.52604326191596    2.69687149984046
H        -1.27963910430833    6.04331686859297    2.60841700703336
H        -0.93964703787301    8.46565153000994    3.09750626069761
H         0.72659417764542   10.30196286745774    3.21940235039544
H         1.24929009258467    9.84849543674570    4.84190711520385
H         3.03419639811475    9.90536846471485    2.36500961622070
H         3.06126343894095   11.07409204083861    3.69277475918831
H         4.85727361652974    9.36634651379910    3.97044341139271
H         3.67701126806707    9.25510094582364    5.27632191486844
H         6.37937572490820    7.76488734968923    2.19233500866571
H         8.72689028470404    8.25820000205347    2.73934881685059
H         9.59888501130227    7.78353529545260    5.00217651578592
H         8.09493876346633    6.84123879275056    6.71684143013743
H         5.74478594387033    6.36296385379268    6.17107244644195
H         1.82032084888796    5.33960038258538    5.84057191037946
H         1.84485234485024    4.80405969190500    8.25867308276227
H         3.80683582157376    3.58042128377870    9.19532512837310
H         6.76887694675150    3.48038461322402    8.11184594298950
H         5.75865204438558    2.14758727537134    8.67701425118167
H         7.49073965966247    1.35561584414668    7.05930689234523
H         5.86628049285788    1.11806276737657    6.40356997063238
H         7.72538194144858    3.45657116980956    5.76828959492307
H         7.35681751928618    2.11891364736731    4.68170116460444
H         7.93067818491035    5.05472422153215    3.33474030241550
H         9.60655952964676    4.55554542063252    1.60331139432603
H         9.19408597036612    2.75575893211237   -0.03825984742804
H         7.10463365889484    1.44837911297830    0.08273538244425
H         5.42997292860169    1.95286070930613    1.81252422556146

