49
CSD_code = TEWPIV | q = 0 | S = 0 | Stoichiometry = C19H26Cl2RuS | MND = 9
Ru        7.60947937609636    5.10561006101650   13.00081153941240
S         9.63623797948968    5.57666625632886   11.77329040434699
Cl        8.90655759503711    5.24841175597840   14.95275681638505
Cl        7.25216366851046    7.41876916472872   13.17779131499936
C         7.04353116305453    2.36618213607524   15.08470451519311
H         6.16384271796989    2.21175361597988   15.70725530505118
H         7.77364409767744    2.93564753022488   15.66698393755695
H         7.48695872675846    1.40443737624626   14.83450041130875
C         6.69648104024037    3.13721174050419   13.85130638547048
C         7.31655686852944    2.86234180066528   12.62198688959867
H         8.01413666186680    2.03577581619210   12.54640034148960
C         6.99639848134864    3.62405761885594   11.46967993006126
H         7.46418628911695    3.36182479792847   10.52591783342227
C         5.97424372160019    4.60283132029271   11.48988261879471
C         5.36530367344418    4.87615521444408   12.73352083033584
H         4.57554744472633    5.61910096698991   12.78560184224348
C         5.73370248578773    4.18265672040657   13.90357870646341
H         5.21561684190194    4.38332374829714   14.83584889644805
C         5.54782210294352    5.32894063973499   10.23728751130873
H         4.72849321123774    6.00581417759673   10.50330893236260
C         5.03625792003928    4.34450972786543    9.18220522099929
H         4.65107400956437    4.89102835371169    8.32509983261259
H         4.23500217923922    3.72873266767525    9.58657121394678
H         5.83430934854331    3.69084579048450    8.83749403711228
C         6.70116566630440    6.17653573390192    9.69443604286669
H         6.36578421319292    6.76392745204233    8.84354715061523
H         7.53206309084334    5.54958693170847    9.37744895483527
H         7.05483952587986    6.85597912554049   10.46962218020436
C        10.40191840767961    7.01650340225818   12.55800583584099
H         9.68134079627305    7.82711042854803   12.47283517049734
H        11.31965333694458    7.25886242738992   12.03083561656001
H        10.57396457454228    6.78933609665416   13.60755484256224
C        10.72054649348765    4.23676083030939   12.39223104335961
H        10.63335184647558    4.23072644455569   13.48121940646100
H        10.29617827612523    3.31838433309338   11.98428888434636
C        12.16874285395659    4.39091728232431   11.94053070962468
H        12.60428857203717    5.27870169218835   12.40028587200321
H        12.20349453813065    4.50415090473913   10.85545750144455
C        12.94331350528553    3.17224879406141   12.36392704516729
C        13.23568066650800    2.16243202791267   11.45758113036905
H        12.92814422120597    2.26487182233976   10.42629813986294
C        13.92457173238959    1.03197216007460   11.86168867778029
H        14.15121718612102    0.25575949346247   11.14537389681781
C        14.32256071642164    0.89667252170341   13.18035068741915
H        14.86043638095197    0.01516084898965   13.49619428153722
C        14.02958153911421    1.89676731373202   14.09246621193545
H        14.33743208974011    1.79613916039418   15.12266780722961
C        13.34347316244001    3.02699281102458   13.68660731602319
H        13.11700900320747    3.80537096277615   14.40056032767512

