77
CSD_code = TEWSOE | q = 0 | S = 0 | Stoichiometry = C32H40Cl2NiP2 | MND = 4
C        14.18671685462827    3.29340102423525   20.02031601908483
H        14.18671910631919    3.87248007579212   19.08691877327919
C        14.18669083795249    1.89005408354711   22.18581897041928
H        14.18668397219130    1.30788922123245   23.10706668322797
C        12.97406582249240    3.55384268384000   20.88731250178780
C        11.93640489266998    4.44726681520978   20.62733693135857
C        10.87322397092460    4.48886985491695   21.52863763515279
H        10.04410934342630    5.15620489928784   21.35079245618609
C        10.86195929923340    3.69461207312684   22.66088621164985
H        10.02559588500136    3.74926471923992   23.34216825433413
C        11.92269341376030    2.84673976988900   22.93870478387792
H        11.92708322426410    2.24788827344328   23.83752961238156
C        12.97360975702265    2.78007029958933   22.04620628141827
C        14.18669102581491    1.80109631374781   19.76759976927546
C        14.18665029645338    1.17424417607341   18.53746248968694
H        14.18661159625113    1.74772632942717   17.62419974484381
C        14.18666964274546   -0.21284479148894   18.48594926968880
H        14.18663795743013   -0.70814973342203   17.52659315840326
C        14.18674122046136   -0.96264118258178   19.64859416478406
H        14.18677388982306   -2.04113453414194   19.59510994729305
C        14.18675679869540   -0.33540842779213   20.88624663877004
H        14.18679154304425   -0.91664937259511   21.79690959749729
C        14.18671529590787    1.04297988422878   20.93764553276419
C        11.06649821634854    4.74630694252465   17.87861344780703
H        11.06653416251586    5.43180447692812   17.02378525202323
C        11.79716383844096    3.47578796346702   17.45759604410984
H        11.86013066242183    2.77156021200285   18.28605134948737
H        12.79707933057211    3.72275176537835   17.10769754930755
H        11.26577722238241    2.99319514321098   16.63896295265907
C         9.63226600797256    4.41452544418629   18.27728587250429
H         9.17062044049234    3.82390745285898   17.48710947416756
H         9.02458174092216    5.30507309740265   18.41627364807042
H         9.61311419148645    3.82444063527668   19.19216347649343
C        10.93635840730710    7.05746960575639   19.61467491852786
H         9.91513501550593    6.67447899399603   19.71281168763253
C        11.30803444906753    7.79519985445568   20.89646869427180
H        12.24802595856888    8.32606737348166   20.77097477371504
H        11.41552169320515    7.11397083082202   21.73746397723241
H        10.53373206191935    8.52423981179827   21.13425997473380
C        11.01398123628606    8.01382021860446   18.42378904707270
H        10.48304575377664    8.93831404805924   18.64471780831331
H        10.58214440627104    7.57783725786454   17.52547427066508
H        12.05739326666646    8.26039397725406   18.21611750276696
Cl       14.18602790035270    5.97438771353490   16.85360068244593
Cl       14.18713016957476    6.49872988712083   21.00117000191638
Ni       14.18684595634848    6.03966875835847   18.94283199321181
P        12.04954503404116    5.61706026281542   19.21762061026462
C        15.39934765867899    3.55384142009061   20.88735565286269
C        16.43704697198566    4.44723070103195   20.62742526833651
C        17.50022525107427    4.48879850821926   21.52871290943138
H        18.32935592441668    5.15611061446301   21.35085680506279
C        17.51143825158314    3.69457156304420   22.66097131437780
H        18.34779478756559    3.74921071316885   23.34225967466586
C        16.45066642388091    2.84673688141127   22.93877527028632
H        16.44626086788376    2.24786503196321   23.83758437367495
C        15.39977515644465    2.78006713696689   22.04624617165679
C        17.30692206540175    4.74626226739427   17.87858912072962
H        17.30686241130058    5.43176650228300   17.02376305820978
C        16.57630321678619    3.47570646956825   17.45758283463092
H        16.51335398552662    2.77148563393786   18.28604552346034
H        15.57638426426191    3.72265298179320   17.10770170671247
H        17.10767504327977    2.99312555875821   16.63893331005597
C        18.74115675362763    4.41450972040332   18.27726601080612
H        19.20278089870040    3.82390390649129   17.48707006780566
H        19.34883289271469    5.30506581957230   18.41623855973582
H        18.76034530242796    3.82442112766701   19.19214092480373
C        17.43712853381859    7.05753539221641   19.61470189660009
H        18.45836130737059    6.67459089864109   19.71285496950587
C        17.06521514060961    7.79511895487440   20.89650479644974
H        16.12512882573348    8.32582033819135   20.77097528160413
H        16.95782773323997    7.11384972592034   21.73748538319119
H        17.83938461563978    8.52428166882795   21.13432895275059
C        17.35941562849535    8.01384688428421   18.42378692620833
H        17.89029659475404    8.93837437711832   18.64470166228763
H        17.79124957801680    7.57788281274725   17.52545857906626
H        16.31598255635713    8.26035348727731   18.21613939691245
P        16.32409858946391    5.61701871971040   19.21772316155254

