79
CSD_code = TEWYEA | q = 0 | S = 0 | Stoichiometry = C41H33ClOP2Ru | MND = 8
Ru        0.74709569736254    4.46234992075037    9.56018370354581
Cl       -0.22183757508978    4.21492927270473    7.38918974857950
P         2.13186689504520    2.84692844124021    8.77250919929390
P         1.98806086008875    6.29614378194685    8.99676788631000
O         2.77480637248514    4.89614871502654    6.96378972798067
C         1.48276108153760    1.21911646351036    9.25745253191494
C         0.26214403948497    0.84267357213752    8.69726379661468
H        -0.20792916336593    1.50115327278264    7.97595301445911
C        -0.33111133813052   -0.34838894170447    9.06841627894072
H        -1.27434231254015   -0.64146243101785    8.63023605288164
C         0.28093382395034   -1.16424564296883   10.00886128687869
H        -0.18502789757527   -2.09359727334124   10.30260293212626
C         1.48579539804819   -0.78566365565466   10.57631753251079
H         1.95878211076457   -1.41897750595055   11.31328802264953
C         2.08885649889725    0.40466676818519   10.20534443808945
H         3.02908421003599    0.70120989216695   10.65025672566714
C         3.86153431607675    2.77041422884567    9.35719298338591
C         4.19001102359633    3.51123804788760   10.48501189054834
H         3.40392225717883    4.08516255063615   10.96422429367354
C         5.48377241566627    3.51507815706742   10.97017823977455
H         5.73552346058340    4.09703173947774   11.84494022288333
C         6.45996084931803    2.77243640956585   10.32664494801758
H         7.47465893684239    2.77823694376090   10.69650650092801
C         6.13571154816008    2.01980176773869    9.20936657651504
H         6.89741074381681    1.43585733501705    8.71321718848197
C         4.84124412961874    2.01461539906846    8.72277004985600
H         4.58840674506518    1.42803502546790    7.85011223788973
C         2.39855029346353    2.56887040784933    6.97959568396099
C         2.29320166962647    1.35893483149736    6.30701168887562
H         2.04811415438483    0.45663514675193    6.84858411273069
C         2.49738389659441    1.31088815495160    4.93761857019208
H         2.41583259458905    0.36625174354921    4.42043755437199
C         2.78935802199872    2.46279452961452    4.22731217996632
H         2.92850044968240    2.41801800332972    3.15761677632306
C         2.90123788069887    3.67793674797071    4.88393200998704
H         3.11685215038094    4.58965981076052    4.34735432554566
C         2.71651751486823    3.71757793130200    6.25393147638475
C         3.95082797966195    5.28332747506630    7.52074538068716
C         5.21720325738086    4.90571878881635    7.11010824506910
H         5.34434376921373    4.19826122554228    6.30378402914942
C         6.31193775169972    5.45239460954182    7.76109566936195
H         7.30679509424236    5.16580791719419    7.45490206872521
C         6.14145857772150    6.36634409932886    8.78672265243532
H         7.00498394357776    6.79823289382743    9.26976759845862
C         4.87006776458673    6.72537812098080    9.20769530530336
H         4.74718797250884    7.43585628912978   10.01135157007436
C         3.76308382664128    6.16912900027881    8.58868487848150
C         1.37225037250829    7.33636450229345    7.63177920963239
C         2.21062248739421    8.06317592499551    6.79474526708343
H         3.28269552702349    8.01556524475625    6.92895966936683
C         1.66952271227064    8.84428326527295    5.78916911304397
H         2.32312839940667    9.40482713473003    5.13570683741346
C         0.29658026291034    8.90889144120946    5.61645475072722
H        -0.11947131842648    9.51586235764107    4.82528392491807
C        -0.54219512275556    8.19400805920588    6.45590153730188
H        -1.61293032820351    8.24196280193378    6.32133563934150
C        -0.00638200510088    7.41067330097725    7.46077251572123
H        -0.65136975838529    6.83587255273821    8.11418847341923
C         2.03648944766598    7.51561567867218   10.35770583590454
C         2.76045682991402    7.19674567430355   11.50489808927439
H         3.30616325893440    6.26328969333302   11.54107056274131
C         2.78700633169351    8.05891044064777   12.58440161583377
H         3.35670913268558    7.80285692409177   13.46675128948895
C         2.07833184372692    9.24908220967799   12.53797878060739
H         2.09303364036602    9.92152430020520   13.38310471610949
C         1.34933513917223    9.57000736991573   11.40599412021184
H         0.79263808026117   10.49529076041411   11.36657955317685
C         1.32696354790310    8.71024068613209   10.32081866687082
H         0.75406206846978    8.96912723782544    9.44163853533402
C         0.52715178806628    4.80096185733922   11.77864537141244
H         1.20635424006745    5.21192876082978   12.51274512860847
C        -0.49829851593130    5.53733157093501   11.10437855227547
H        -0.68757554884383    6.59641935594836   11.22759562731714
C        -1.32597778891588    4.61512482247600   10.43775820678487
H        -2.23575895319028    4.84766949688049    9.90007388669416
C        -0.81816976894263    3.30902202132066   10.66827037386674
H        -1.31306388029645    2.38486629582012   10.40382365025515
C         0.30947395642379    3.42900834536750   11.52273457417086
H         0.84629023166157    2.60477993049140   11.97598613866615

