30
CSD_code = TEWZIE | q = 0 | S = 0 | Stoichiometry = C10H13BrN4PdS | MND = 4
Pd        5.12556622492525    0.00001377261006    6.69024705345681
Br        7.10708811633641   -0.00000531096874    7.93077832855921
S         3.69124103321325   -0.00000179360840    8.47265404089632
N         5.97727120565862   -0.00000045429135    4.79233583645402
N         3.49816158240006   -0.00000093276928    5.62589159045415
N         2.28797040209185   -0.00000066218057    6.16915186804039
N         1.05066020744550   -0.00000004728212    8.07609341646902
C         7.25382112894609   -0.00000062649755    4.43519944015679
C         7.65422724047368   -0.00000018983271    3.10871397810529
C         6.67946988926430   -0.00000024555599    2.11898142786617
C         5.34847880516403   -0.00000030275847    2.48495226012300
C         5.00651943594268   -0.00000027696312    3.84289977044546
C         3.64510184720195   -0.00000052582811    4.32304595107546
C         2.47233587163382   -0.00000032801718    3.39068182545946
C         2.25471750982206   -0.00000012723993    7.49105961743483
C         0.86291602879333   -0.00000027127288    9.50242944298241
C        -0.12974485080610    0.00000010741627    7.24127475524140
H         7.97961697554842   -0.00000004316858    5.24041342565451
H         8.70303537702439    0.00000016764724    2.86270061744633
H         6.95682847110638   -0.00000018280346    1.07562113126488
H         4.57182023943161   -0.00000021127121    1.73794549272845
H         1.55847924053156   -0.00000019157294    3.97871883616536
H         2.48765790997976   -0.88422343378317    2.75460623138850
H         1.82981476353387   -0.00000035182810   10.00031707387248
H         0.30696528373885   -0.88943854969661    9.80850881062186
H        -1.01302020098632    0.00000000762992    7.87382692953673
H        -0.14071156683295   -0.88349320340221    6.60046769684230
H         2.48765806861863    0.88422268590501    2.75460610482499
H         0.30696531334112    0.88943792008844    9.80850908943490
H        -0.14071155354211    0.88349360129564    6.60046795699849

