49
CSD_code = TEXDUV | q = 0 | S = 0 | Stoichiometry = C18H22I2N2O4Zn | MND = 6
Zn       -2.13547747903744   11.46382397251551    2.65293558123709
I         0.15984502802355   12.11801789241753    1.73607939004246
I        -3.55039126453907    9.66749145763260    1.47593388868450
N        -3.33962048676180   13.23127837926639    2.02800623900545
C        -4.49896680773607   13.41786986448284    2.65385021612193
C        -5.36491677628682   14.45628570511685    2.33278743818456
C        -4.99887836260532   15.33068621400139    1.32191471756651
C        -3.79086207228185   15.13146343119787    0.67446674562560
C        -2.99318642034682   14.06405748052538    1.06359906722767
C        -4.81769742744895   12.43077956139389    3.72119225305103
O        -4.01983358836248   11.61559762249366    4.12882581723631
O        -6.05147105989543   12.54753235901253    4.17668196594694
C        -6.49082631589292   11.57730874234500    5.15135879997636
C        -6.91455925001712   10.30047061235151    4.43620611115581
C        -7.63147736480089   12.21989581531494    5.92493449152884
N        -1.40240501553842   10.25272561897479    4.36158800936236
C        -1.19124815486392   10.89963624902874    5.50444615770753
C        -0.69947150928336   10.26927806780355    6.64116920853866
C        -0.41951180419538    8.91360714910626    6.57347134574611
C        -0.64081676663614    8.24601992036443    5.38018212479341
C        -1.13634062901289    8.96088619630181    4.29847718390660
C        -1.50392970168245   12.35354596063837    5.47975578701969
O        -1.80017127130053   12.95343527483930    4.47181709872510
O        -1.41785700353354   12.91789348656039    6.67314916365324
C        -1.71513208778975   14.32600790426068    6.75897050823413
C        -1.02501190630291   14.84711446965449    8.00925145431333
C        -3.22674699763405   14.52445877039952    6.80329107046754
H        -6.29506793680478   14.56221260759907    2.86697866009162
H        -5.64685467271914   16.14904743537594    1.04594991701147
H        -3.46586279934665   15.78487970960291   -0.11917333545234
H        -2.04384754768010   13.87423106160646    0.58142156138858
H        -5.64367089370815   11.36572198568766    5.81762778924354
H        -7.24632280990421    9.56552334261848    5.16364279743319
H        -6.08348321003887    9.88186546184531    3.87346409337629
H        -7.72817312244059   10.51178526388831    3.74656154593883
H        -7.98015232446113   11.53770851976117    6.69436779238672
H        -8.45408583812790   12.44426268809673    5.25116781681262
H        -7.30176900200623   13.14372379273024    6.39435396106361
H        -0.54077702858974   10.83778851413371    7.54301324485737
H        -0.03442195938013    8.39133449439120    7.43642628572940
H        -0.43641261951680    7.19206253523086    5.28130206959936
H        -1.32662610234167    8.47529779575809    3.35075682780890
H        -1.30683292730570   14.80942689582103    5.86218033865717
H        -1.19428702280324   15.91564322151025    8.10218600177755
H         0.04453729469677   14.66342292174365    7.95272300187701
H        -1.42031058576715   14.34610976356450    8.88924688902342
H        -3.45668785088834   15.58371262037908    6.87332765974724
H        -3.64546800111132   14.01052765203555    7.66615094473021
H        -3.68476054399969   14.12814353862110    5.89908230184053

