45
CSD_code = TEXDIM | q = 0 | S = 0 | Stoichiometry = C17H18ClN2O6V | MND = 6
V         6.22526633545976    5.22474777772829   10.11459450785211
Cl        7.77938664527375    6.38787096261414   16.99791969926072
N         6.23608883167595    3.70277814291735   11.46899368587623
N         5.77474037478703    2.53994865925602   11.00243403546130
O         7.30642939569133    5.98134617346944   11.21226748873965
O         5.79386253975806    3.70846835501901    9.07937781891657
O         3.95271029430022    0.69880176457700    5.62058533763168
O         8.61024871637819    3.99289874152379    9.70875768531524
O         6.68132299114718    5.96132278163031    8.71784003419488
O         4.81979983647425    5.62722608131176   10.54794856328115
C         6.97229691073991    5.00767610844422   13.33301181181135
C         7.39444938679635    6.08262360166421   12.50237701510546
C         7.93154454728627    7.23021462082701   13.11059104913099
H         8.24818970401859    8.04444891222372   12.47512659309594
C         8.04283639666375    7.32351447859148   14.47940890720959
H         8.45034190224324    8.21217929364054   14.93556600513694
C         7.62841363625378    6.26179105557666   15.28077507880900
C         7.10496598820662    5.11671022957563   14.72254869317263
H         6.78695452521379    4.30024335654931   15.35288183656542
C         6.45269987832637    3.81740565888040   12.73504138365423
H         6.22609827271979    2.96520816133339   13.37786291262162
C         5.52860058844922    2.63549604788419    9.71687256401359
C         4.96491793062724    1.47454202850835    9.00826806556918
C         4.70254643560259    1.57468306376292    7.64904538996520
H         4.90207135699785    2.49715303729758    7.12565997613117
C         4.16911879582992    0.49479339995570    6.94801451684091
C         3.90227724098092   -0.69009634914354    7.62758383995657
H         3.48751159297050   -1.54336385207257    7.11445270474621
C         4.16775445250735   -0.78249328836325    8.98654321221655
H         3.95286642549119   -1.70843929279665    9.49906234888720
C         4.69496278022149    0.28389001788280    9.68422277477300
H         4.90134927690628    0.22365681444346   10.73947271566430
C         3.38525299115129   -0.34187108758887    4.86136090275136
H         4.02949997435994   -1.22695784822344    4.84614503294080
H         3.29044932216513    0.05023834824271    3.85003660524028
H         2.39450811484595   -0.61832262965347    5.23550906716764
C         8.78354756975268    2.86145287544014    8.87920194082007
H         8.44515651865517    1.99567607006697    9.44814026472751
H         9.84009359032411    2.72898490861230    8.61926196799510
H         8.18886797836212    2.93656874581280    7.96285484820174
C         6.27155730582961    6.52624609944958    7.54551772633970
H         5.50810571076657    7.29573280560705    7.73573760379198
H         5.82636975295242    5.74002441913544    6.91207944307312
H         7.12048446595206    6.97493853843475    7.00687974137160
H         8.91418271888977    4.77274220994676    9.22536660395952

