88
CSD_code = TEXFAE | q = 0 | S = 0 | Stoichiometry = C33H50ClIrOP2 | MND = 6
Ir        9.75365534243529    6.46608950732336    4.27301225056464
Cl        9.24775509244383    4.30372780430456    3.16225411009463
P        11.51620172793040    5.80247129272572    5.80709289052093
P         8.09855935333511    7.73643704777295    3.12130793829227
C        10.17472297939924    8.30592119005200    5.06510669854644
C        11.42175731063616    8.53449086173778    5.65025413354529
C        11.73077775042691    9.78609790090530    6.16602255867782
H        12.69806050361038    9.95863117424636    6.61803106004176
C        10.80738798067199   10.81407878727920    6.10352127002132
H        11.04974261538133   11.78429396941333    6.51074264649333
C         9.57571737783157   10.59927847250032    5.51176203434600
H         8.85805385180173   11.40662340737761    5.45557422617537
C         9.25540833785426    9.35449062317433    4.98463136539956
C        12.42733903335794    7.41223454905942    5.69342392470156
H        13.14534500553875    7.54392735303866    6.50563714124075
H        12.98181412578364    7.39518547987628    4.74755121996675
C         7.91987157203634    9.12392545298571    4.32484378954867
H         7.53799331904429   10.03252288355232    3.85480256126159
H         7.19144193877227    8.79808471794914    5.07192490252766
C        12.79542764710715    4.48876034156870    5.27383525466378
C        14.21612694928690    4.72702278046444    5.79100624126699
H        14.31714374167789    4.54547512375976    6.85378532534735
H        14.55437469047082    5.73730465349182    5.57234724860665
H        14.88795769863460    4.03804287880221    5.27931420668669
C        12.86178867110821    4.50643678392111    3.74693693469629
H        13.24310631739107    5.45496213019621    3.37423359435565
H        11.88365917062221    4.30213258285039    3.31789374524065
H        13.53762600337402    3.72425586414924    3.40225536668627
C        12.28093723177542    3.10801904274208    5.68057033458371
H        12.87496450908232    2.33716105128285    5.19066441680712
H        11.24730603617182    2.99029081534001    5.35704466573568
H        12.34527517032803    2.94162010425354    6.75221318536001
C        11.25161995922063    5.64485976130409    7.69137291963298
C        12.52274104049154    5.32860545325227    8.48090638536232
H        12.30553472152000    5.45787887555178    9.54122453739411
H        13.33542823505097    6.00598133865729    8.22926523389340
H        12.84811232930853    4.30203267113455    8.34192379870598
C        10.72603706594959    6.98918630778188    8.20098122413100
H         9.92865413321822    7.35960283689833    7.56806164108035
H        11.51285707722197    7.73770556602332    8.24599043668410
H        10.32692610679974    6.85949556988439    9.20613869788283
C        10.20191738011952    4.57016912726284    7.97840907334659
H        10.48566922015234    3.60176542409919    7.57943167060077
H         9.24754449810674    4.85264733619785    7.54903486338953
H        10.07104422357120    4.46785585949551    9.05531556172171
C         8.70858407207639    8.64086556148954    1.55518021924969
C         9.94368656093290    9.45918815647483    1.95070051684283
H        10.68395357719822    8.85753433159321    2.47145397188050
H         9.67678842107525   10.29053082824672    2.59885965773772
H        10.40917411680773    9.86910493232227    1.05488781463356
C         7.70664271343163    9.63643283059630    0.96424957637449
H         7.38956461445550   10.37469105260713    1.69782397801061
H         6.82989962805146    9.14829729889962    0.55012567772899
H         8.19544866792976   10.17307934039787    0.15101877403422
C         9.08531532243296    7.59653279873549    0.48910904653534
H        10.05802029292895    7.82083107232376    0.05624330814551
H         8.36334693590038    7.58061396062161   -0.32331300226317
H         9.13203012113097    6.59357386962797    0.90884830307287
C         6.32999304715389    7.12253048367819    2.78902510348648
C         5.29373491545431    8.24547616459487    2.86888465251837
H         5.49774463475291    9.06328754478357    2.18722126576958
H         5.22782800494311    8.64247264026823    3.87916747193814
H         4.31753028989523    7.83468050695530    2.61300011248530
C         6.27549344361247    6.41086187119178    1.43719015747790
H         5.30949878358144    5.91867965272238    1.32912907598568
H         7.04563277053824    5.64364926241513    1.39041903568080
H         6.39588172466749    7.08977521052662    0.59967262797110
C         5.98012384318658    6.07971056651353    3.84970408389477
H         5.98266019375286    6.50398360389776    4.84968011961911
H         6.68718979748633    5.25532045770357    3.81055165695734
H         4.98493272309051    5.68254906374287    3.65267782777303
C         6.78338250513340    6.33469934221393    7.65598914040456
C         6.42791216807257    7.17734621820128    8.71204226457111
H         6.88696561145718    8.15492016358816    8.78231505301786
C         5.51073809545357    6.78213938202504    9.66536174109094
H         5.25356325834479    7.45124519843670   10.47459694606777
C         4.91920466094001    5.53235120131969    9.58502924810879
H         4.19976985023772    5.22119998489680   10.32839352432428
C         5.25548021143302    4.68667253473141    8.54074991203106
H         4.79482195080775    3.71164151381858    8.46806141799939
C         6.17402778228493    5.08039962506854    7.58782675967757
H         6.41316450159736    4.40794028077437    6.77771184077936
C         7.76229235724635    6.80970256687622    6.68039406480234
H         8.01634177955308    7.85636061554294    6.81846004992689
C         8.35427149733647    6.08552207979576    5.72390045164493
H         8.04081949027600    5.03908399232356    5.69055293830590
O        11.53057726032648    6.44890360342526    1.79888180552038
C        10.95708275697803    6.54433587838591    2.78496852235689

