101
CSD_code = TEXFOS | q = 0 | S = 0 | Stoichiometry = C41H57IrP2 | MND = 5
Ir        3.14258729732824    6.16469845383841   14.41948472753143
P         2.65422538854588    8.10037473705486   13.19528958454072
P         4.35505866141745    4.54382226522670   15.55558374798468
C         4.53186500150724    7.42829303557943   15.29718782699360
C         4.61429684380754    8.78478208966379   14.94836336761478
C         5.69931055742382    9.56855422986881   15.31333819106778
H         5.73724413119618   10.61026877724026   15.01877554084890
C         6.73796619540445    9.02470029430636   16.04704417685045
H         7.59324340859712    9.62894583494815   16.31404642362655
C         6.65891507821759    7.70610187631614   16.45513756151161
H         7.45119848292690    7.28043293032484   17.05859731205397
C         5.56677121423112    6.92682389485467   16.09854386073468
C         3.46535134508483    9.40989047454991   14.20105776870576
H         3.77561423397755   10.26995807817319   13.60180719729793
H         2.72276625054099    9.75459130468802   14.92945981026217
C         5.44019807751561    5.53528921930170   16.66329795387550
H         4.92545308001756    5.62124241597430   17.62426709304268
H         6.40915313778419    5.06557741455912   16.84311493439358
C         0.92444435267628    8.81256589714233   12.86623805413280
C         0.88360870245837   10.30782827502048   12.54926086130216
H        -0.15875665742706   10.62212748475686   12.49683702801335
H         1.34445451342128   10.55328058974109   11.59956124246857
H         1.36316855947801   10.89043245589049   13.33225893072353
C         0.13690163350768    8.58648706065944   14.15823208445720
H         0.61702749303502    9.05221004064913   15.01547500607880
H         0.04698474354647    7.52484101603888   14.35363060068413
H        -0.86295088565118    9.00765166273841   14.06204722375332
C         0.24805635154786    7.99818579267542   11.76369548353667
H         0.40442265238182    6.93421714598613   11.93919710296443
H         0.62511351602422    8.25728534503099   10.77783676061100
H        -0.82405757873275    8.19015771659203   11.76710604163458
C         3.66148685297591    8.14641777723721   11.57762715875898
C         3.43097753332182    9.36481163416794   10.68517463163173
H         4.16788197140460    9.35292029685643    9.88129198861934
H         3.56005747708497   10.29451480862053   11.23534813886170
H         2.44742880243673    9.35177288977808   10.22451488885523
C         5.14260257954212    8.14798001398699   11.97149526764303
H         5.75734296357814    7.90617657922520   11.10421752103947
H         5.35638266150629    7.41997464413182   12.74721692476479
H         5.45399920676005    9.12360598187781   12.33821247392800
C         3.35299482255421    6.87627484561251   10.78168612122780
H         2.34693860118342    6.90257190799338   10.37320867979594
H         3.42495858112924    5.98766309515123   11.40670834665595
H         4.05235931419357    6.77247189523206    9.95213793545448
C         3.63184067287219    3.20566282401613   16.69277371053573
C         3.01125652021471    3.94964440853759   17.88338813986550
H         2.56537397187431    4.88918427758804   17.56322938488665
H         3.75655957039256    4.16065797893060   18.64780297458480
H         2.24035373250989    3.33538774707811   18.34624719410740
C         4.64548656359776    2.19977242596698   17.23407543802841
H         5.49140490393332    2.70278824010819   17.69965829418621
H         5.00774355981447    1.53154468008752   16.45740821356451
H         4.16234137667990    1.58662432047161   17.99488774236454
C         2.52815495678413    2.47895614918776   15.91950113207382
H         1.85680319060553    1.96963991670294   16.60948466660946
H         2.93861094819895    1.73040505682139   15.24904548069567
H         1.95429471502728    3.18623915036755   15.32406607221945
C         5.58125339097754    3.75535142115463   14.33857401524520
C         5.90262035057333    4.88319763357409   13.35618275023672
H         6.58819039018882    4.53606470458242   12.58240396055246
H         6.37203383011154    5.72239329558180   13.87051699560960
H         4.98668892397892    5.21503673796979   12.86209238974663
C         6.90164971429887    3.25744212215088   14.92720948440983
H         6.76115386097761    2.54235899821899   15.73029351668663
H         7.50788079925244    4.08295501379517   15.29470348455964
H         7.46945038714452    2.76447324031350   14.13752554450822
C         4.88587012320867    2.63251339328889   13.56842089066679
H         5.45012761295215    2.39789199861551   12.66563476678588
H         3.88122265553786    2.93602830895231   13.27402703761679
H         4.82345541428524    1.72420797131216   14.16172970032426
C         0.82966170251293    3.21259948344251   11.67281114499236
C         0.72088250389469    3.49019210743571   10.30836612457597
H         1.14129732330197    4.40797747698557    9.91981151144792
C         0.08372932059641    2.60220226721058    9.46474988432484
H         0.00349939324286    2.82631810690356    8.40967688958406
C        -0.45384444779005    1.42651083246169    9.96397866744529
H        -0.95313650869797    0.73429323758386    9.30116424711072
C        -0.34898120018752    1.14210115090588   11.31667605873829
H        -0.76779035238728    0.22487586182866   11.70783594722747
C         0.28712500514323    2.02371543992782   12.16715349710248
H         0.37030127542469    1.80601278401829   13.22317676297904
C         1.48092409308384    4.11833123817844   12.54430866171324
C         2.02309011406278    4.88786873113008   13.31247488979307
C         0.96928434684268    7.66900175672476   17.94713691121921
C         0.84758505605872    9.01819377169283   18.28644266481716
H         1.41980361986217    9.75298073147431   17.73665798858925
C         0.00501123168587    9.42709874120703   19.30077602657608
H        -0.08240435436882   10.47811005905113   19.53762350950092
C        -0.72363721667801    8.49236785885785   20.01830778795214
H        -1.38206177837013    8.80933405187899   20.81372177418477
C        -0.58762881711562    7.14837670381120   19.71712687531091
H        -1.13574678717004    6.41122195673899   20.28683935016495
C         0.24803462890140    6.73867148325568   18.69383285043648
H         0.36446996478103    5.68529815486494   18.49770524226518
C         1.87641398903553    7.31063166468173   16.85192410441061
H         2.76450851643422    7.92791503373141   16.83328272340272
C         1.69100544583328    6.39592381946470   15.89342949632462
C         0.42897017807078    5.56495620727304   15.84202668798912
H         0.56221749211054    4.62822263788811   16.37881782370610
H         0.15960997512363    5.30992857416375   14.82063085504393
H        -0.39386299861321    6.11007188257327   16.30343648168194

