86
CSD_code = TEXFEI | q = 0 | S = 0 | Stoichiometry = C32H50ClIrP2 | MND = 5
Ir       10.06605734436379    9.70715569677923    2.07408906417714
P         8.41240308418256    8.97416897571186    3.55026429642510
P        11.27068470791657   10.10875534397563    0.13774848623776
Cl       10.21055446018885   12.01370373979868    2.81026163374943
C         9.80141520615255    7.88321802489757    1.21749222539490
C         8.76725156834946    7.03477988649234    1.62108345724303
C         8.60875098217731    5.78168337395160    1.04227281535223
H         7.80899386252463    5.13499449552110    1.37761311155808
C         9.45568146592364    5.36234587970203    0.03447863458987
H         9.33341807843321    4.38510898184974   -0.40865961592079
C        10.44639695188138    6.21487884068697   -0.42032045624068
H        11.09088334432285    5.90667941678536   -1.23284288079477
C        10.62043304542852    7.46255510135107    0.16025361119715
C         7.74491826102210    7.52121939108819    2.61496064526123
H         7.41347429547055    6.72306094919746    3.28102876424900
H         6.86939345909892    7.85330869668674    2.04711897330893
C        11.69964388908572    8.38099534160289   -0.34969834298969
H        11.85570552996410    8.26480445823547   -1.42454658370165
H        12.63861894376299    8.14264326106625    0.15997396951670
C         6.92140801816498   10.14433521792311    3.60297023468410
C         5.57693853297087    9.50440057712098    3.95271407554434
H         5.51114634580488    9.24766988022330    5.00459737099358
H         5.37800461810802    8.61055133439901    3.36575448333107
H         4.78380868752667   10.22170821265776    3.74021504711659
C         6.84796383660758   10.71203944286749    2.17983067708872
H         6.05501030672500   11.45645346845190    2.11118740437884
H         6.64048197347945    9.93670523872787    1.44141931397784
H         7.78438067895709   11.21046642317428    1.92743192946970
C         7.21666306830441   11.29822623835045    4.55975369893740
H         8.19558891999493   11.72489267535267    4.34687798545835
H         7.18661495889897   10.97601748502290    5.59797825336276
H         6.47191416563963   12.08381811179281    4.43302587277814
C         8.78286050376496    8.24938238526157    5.25777648826088
C         7.54805245608739    7.92122531510778    6.09344252444254
H         6.82808341217903    7.33033686794886    5.53062034651940
H         7.06236074488210    8.82184856772662    6.45962263349477
H         7.85381271967325    7.33668282761714    6.96092721438827
C         9.58234617570647    6.96387017357843    5.01959179467599
H        10.08545418510224    6.67092386243461    5.93965169081822
H        10.33755761624113    7.12282707357828    4.25370240564843
H         8.94215948115079    6.14028073389079    4.71432320884325
C         9.67239571160990    9.24464323518930    6.00243918316610
H         9.95204501525263    8.84091126134047    6.97472481328524
H         9.17016066170431   10.19482318152443    6.15913045718731
H        10.57811225014205    9.42750563225158    5.43108420324694
C        10.07888086006662   10.70857817054099   -1.21224672632424
C         8.91686792909847    9.71002961221247   -1.22681996517602
H         8.15287927147373   10.04223685956119   -1.93015969081979
H         8.45760804826611    9.63658022936736   -0.24082177467167
H         9.24182994801084    8.71540242750958   -1.52404938215101
C        10.67552761537736   10.77226045343287   -2.61619173474418
H         9.88598160687631   11.01719027532262   -3.32705715880609
H        11.10207956226684    9.81563260022599   -2.91204686416907
H        11.43844339918432   11.54186732908849   -2.69684268311152
C         9.52201221745588   12.07906194738027   -0.80883899484041
H        10.17189971169364   12.88957842246207   -1.12403673246877
H         9.40211266145203   12.15191031127883    0.27129730769178
H         8.54766553483829   12.23918871888278   -1.27002306791786
C        12.92044296313280   11.02660690557238    0.00624479518089
C        13.79715961801623   10.53937813242134   -1.14802882513282
H        14.69769554622178   11.15179753248003   -1.18714939810910
H        13.29983606150547   10.61829561057986   -2.10953417449262
H        14.10552878935597    9.50753180714490   -0.99934761718925
C        13.64521697098918   10.75915294371623    1.32688555939216
H        14.63118133915693   11.22162483166614    1.30983337650160
H        13.76908383240666    9.69410384088861    1.51180386343164
H        13.07797015040738   11.18968530121492    2.14777671633026
C        12.68169642253003   12.53232610749882   -0.09259429068869
H        11.95255832824017   12.84464940128353    0.65237574460444
H        12.33695480186864   12.82628941017005   -1.08046495149870
H        13.61238048366544   13.06360187861019    0.10449836056078
C        13.50078587594877    7.47700645329612    3.81242440182222
C        13.88234859618154    6.13534201439026    3.88379858676445
H        13.29450863914830    5.39334827469377    3.36126076592873
C        14.98768181223374    5.74640802395184    4.61495955641006
H        15.26255633862957    4.70208649049125    4.65995446384821
C        15.74469292751176    6.69163625553609    5.28736361595781
H        16.61106512707119    6.39023337775127    5.85761271656088
C        15.38471183714509    8.02773977258701    5.21777153966872
H        15.97495800734271    8.77158954997673    5.73371148123056
C        14.27776542965434    8.41841848585661    4.48980195064426
H        14.02149333802486    9.46512027741780    4.43605160860146
C        12.32088929816519    7.82895734450044    3.02562829464990
H        11.96632541745549    7.02843312836960    2.38848404826480
C        11.67106451005797    8.99076772237267    3.07589636614043
H        12.04205564695724    9.75624648940441    3.75965379240925

