39
CSD_code = TEXJAK | q = 0 | S = 0 | Stoichiometry = C18H12Cl2N6Zn | MND = 5
Zn        1.49780324172634    3.70574740458657    3.23177231291804
Cl        1.77762777905201    5.86760366305843    3.79956600241460
Cl       -0.32481745713381    2.69391049759692    2.54378835270037
N         3.51105481848954    3.33700375894671    3.70826777759213
N         1.53945757579931    2.97742998751901    5.36952412864109
N         5.66078231715415    4.08072630574026    3.19627081998707
N         5.05937139194550    3.63083493410547    5.42807111247097
N         2.63911221001297    3.84359657453927    1.29565792952863
N         8.24322861077386    4.30652382181554    3.93745900323886
C         4.41883610755350    3.79301314367562    2.85379845881507
C         3.84242725504818    3.35404695878403    4.99271790828244
C         2.74639955424240    3.08864269888046    5.92793448148719
C         3.94922204878319    4.01355833321747    1.48549424562032
C         5.95468723012089    3.93510957680625    4.48464737806053
C         7.33972537899283    4.16485718359188    4.90370470456598
C         7.66487484413907    4.23327061327023    6.25919904698036
H         6.88994615748166    4.11428107970411    6.99827043699587
C         2.94656508295913    3.00401741593735    7.30069382428564
H         3.94335463336103    3.10669740328394    7.69745975484789
C         8.98472212441398    4.46390982437751    6.60779529595028
H         9.27508048485321    4.52699350349619    7.64643397106699
C         0.49144911573055    2.77398200802305    6.14362974283333
H        -0.45891943432119    2.68750552636979    5.63490650004505
C         4.81172231983318    4.41686621072579    0.47271308992706
H         5.85879851934071    4.54454898932279    0.69555079652770
C         9.92421389030369    4.61409734122685    5.60012589073369
H        10.96276524854057    4.79654801844988    5.82800728561956
C         1.84347301893327    2.79546791459846    8.11348243442674
H         1.95818351835539    2.73059746646550    9.18529133485750
C         9.49430869449379    4.52407304650144    4.27999466027688
H        10.18999135018607    4.63145086071671    3.45819245059556
C         0.59400674442280    2.67530769084288    7.52664328602097
H        -0.28900173481680    2.51394203245206    8.12427892712533
C         2.13554710944421    4.05824563264576    0.09542356747842
H         1.07020797846428    3.90117474729484   -0.00336862210005
C         2.91903207867293    4.46080880786351   -0.98026888808342
H         2.46601783733827    4.62954190677979   -1.94432563656050
C         4.27876354351377    4.64644681681364   -0.78592753274501
H         4.91337881178071    4.96662029998627   -1.59877623343139

