52
CSD_code = TEXKOX | q = 1 | S = 0 | Stoichiometry = C19H27ClIrN4(1+) | MND = 8
Ir        2.88337330116381    4.24177231318297   14.76973047499071
Cl        3.34766233121669    1.98391726875570   15.23813681833831
N         4.42567990890610    3.74118425894031   12.09860397159998
N         4.48272948680003    3.99541933203236   13.41673473675027
C         5.71842276735053    3.72374796743595   13.81124232390934
C         6.48445244688958    3.29590805101890   12.72935401612936
C         5.62669321397587    3.31728092448521   11.65577434936383
N         2.12906477347619    3.21817504607357   11.90651414958589
N         1.74593352401871    3.39803141061383   13.18172705001988
C         0.71250421132420    2.59588615368885   13.39218685795492
C         0.40903309637622    1.88808915265672   12.23115950693302
C         1.33462135647457    2.30831135223499   11.30639597865084
C         3.21254734578660    4.00763779814005   11.32961323499176
C         2.86597738900991    5.49742083319968   11.44564406929230
C         3.41900919501767    3.63479367625904    9.86549065681182
C         1.88111345150022    6.20924070203492   15.27333916169695
C         1.03101798015051    7.13033161446685   14.46366265061968
C         1.36418479508964    5.13322943395654   16.09984793098230
C        -0.08558311106192    4.81666432534644   16.26315051195233
C         2.42531775422487    4.65601146276718   16.92096042666694
C         2.33579561543101    3.69160908348183   18.04841523992884
C         3.62839741984639    5.32378533419321   16.50649016468317
C         4.93339532005119    5.21979321513807   17.22297980963909
C         3.26626851369651    6.33756027683800   15.54124067185954
C         4.18617836091246    7.39388219615903   15.03048504907902
H         6.00585972014204    3.82610656773687   14.83833387076919
H         7.51375397952068    3.00624357716954   12.73363316875073
H         5.81563314096448    3.06011199830787   10.63552078615976
H         0.23934839365609    2.54490407058402   14.35206703596805
H        -0.36932817018806    1.16838621569492   12.09141841262306
H         1.45387298459979    2.01033293958873   10.28673987214912
H         2.72294633374511    5.77543217115373   12.48668904754522
H         1.95212394426303    5.70691749142767   10.89665060347575
H         3.67115970793739    6.09575158223834   11.02831450726456
H         3.67545989897673    2.58493877881520    9.75051737433865
H         4.21260186884827    4.24363682813159    9.44105310156517
H         2.51175682618700    3.84298537705644    9.30483313757933
H         0.27595934260516    6.58416600681727   13.90199816160609
H         1.62369248131750    7.72227319425679   13.77111846415574
H         0.51183025354358    7.81724163217195   15.13329804215842
H        -0.62447408716948    4.93192483826375   15.32558837070923
H        -0.52464673506902    5.50351270875899   16.98849505992575
H        -0.22861457373557    3.80315716872095   16.62909877582240
H         2.78556864934813    4.13104394422552   18.93791509208048
H         2.87997406038794    2.77583754545656   17.81846251431763
H         1.30421279058580    3.43172832420072   18.26544455896924
H         5.74771478091740    5.63461017680351   16.63460618314795
H         5.15693523337871    4.18299346065948   17.46457790090020
H         4.87768863821842    5.77631757595390   18.15987407627646
H         5.17566944832496    6.99172488218617   14.82364503635076
H         4.29422845587280    8.16890945727335   15.79040253817048
H         3.80288218516013    7.85982830323145   14.12652449473751

