74
CSD_code = TEXMAK | q = 0 | S = 0 | Stoichiometry = C29H35CrNO8 | MND = 6
Cr        0.26673442911800    0.23780594118284    5.18104023955983
N         3.31710561570651   -0.35090807653431    5.62670867548114
O         4.12918926270185    3.20368710235902   -4.66926621909642
O         2.83067144725786    2.66612999862796    4.81415108071929
O         5.15681371636844    0.37763328954582    7.64150744062956
C         4.55761836510707    3.89942460395153    0.09710609522039
H         4.14682425528504    4.67155303834932    0.74836458419368
H         5.44483397421341    3.48432923523313    0.58280581990062
C         4.97082002626389    4.55695329064463   -1.21502945807105
H         4.11331672083144    5.04481025108587   -1.67819099275787
H         5.70781110231758    5.33602877827714   -1.00489616309345
C         5.57765868356097    3.54095961195595   -2.16996402035170
H         6.49520281745967    3.14899479956738   -1.72431933552998
H         5.84031541043545    4.02329053345859   -3.11193216310320
C         4.64496345528832    2.35856755602562   -2.47569772770055
C         4.11004307648930    1.77459824256008   -1.14495852361052
H         5.00664458079112    1.37029312540374   -0.65426821127212
C         3.14800554331011    0.59933886546907   -1.31863360472898
H         2.14153620335446    0.95303765407424   -1.53719870055957
H         3.45772386135184   -0.03868605793783   -2.14505997412131
C         3.14563272370119   -0.22383055783981   -0.03725728222194
H         2.30590757307628   -0.92280483102751   -0.03409753832617
H         4.06207559921274   -0.82305862849482    0.00503614686287
C         3.08467241516051    0.62608040724881    1.20118090470072
C         3.30196437304784    2.00059141091454    1.18976974872451
C         3.52973090301144    2.77156135008204   -0.10827827364319
C         3.21895687943705    2.69935656858696    2.39549082029165
H         3.36017507991120    3.76652847299282    2.39767224506338
C         2.94531009752672    2.05831685744579    3.58612538653818
C         2.72984507449013    0.67154414266047    3.60064087081942
C         2.81407317460926   -0.01771235214759    2.40581699111382
H         2.63941362541113   -1.08517802594121    2.40473479615344
C         5.49425053278899    1.29535613118058   -3.19191783955805
H         5.99241669897410    1.75369214111131   -4.04116040423326
H         4.88351195943882    0.47992587192464   -3.56888066680983
H         6.24688000403773    0.88615025091307   -2.52181646052023
C         3.54076022675251    2.78657406629198   -3.45374602038640
H         2.86177610491910    1.94226231572473   -3.64523691308519
H         2.94187078945950    3.61103777043090   -3.05003061011117
C         2.16258186025380    3.38893989139371   -0.44393447156125
H         1.80864525938568    3.94986605940540    0.41905786378355
H         1.42066978031062    2.62582600827663   -0.65825230617621
H         2.21297704523219    4.07089294199183   -1.28513252665862
C         3.18189518230817    3.61160839735061   -5.61580226100598
H         3.73378993544423    3.90940301473664   -6.50523196956207
H         2.59141357883164    4.46324876475260   -5.25141218861876
H         2.49279260054881    2.79550073072730   -5.87035045268552
C         2.32557195201731    0.05800517485234    4.88128202585129
C         2.74140454717253    4.07141301702420    4.85445699455818
H         2.51101591648236    4.32246542414673    5.88876105666611
H         1.93886842023709    4.43643168470178    4.20734937677041
H         3.68768428809397    4.54359599001222    4.56914495249233
C         3.16092675443746   -0.83651367720273    6.98328394330380
H         3.68224121731571   -1.79463999168357    7.08038665027489
H         2.10321910269674   -0.96360933950210    7.21457141108181
C         3.79479784809700    0.18375877067777    7.94105887252928
H         3.24889215753226    1.13501273468866    7.86225787077996
H         3.75439948328993   -0.17622360583575    8.96974985444415
C         5.32109634736315    0.82502868513711    6.31779566206458
H         6.39473798664349    0.94190064400436    6.16231645715806
H         4.81789594647939    1.79256523662047    6.17640871729336
C         4.73347174689020   -0.18604636089037    5.32341748330224
H         4.86287226247920    0.16691292217501    4.30085447059361
H         5.23641134286459   -1.15051126321704    5.44621065740902
C         0.13679053065940    1.68403732226771    4.01202037053390
O        -0.12972784620096    2.57079991999743    3.32817140294832
C         0.63378468601721    1.46276706021586    6.53628089769207
O         0.82437898794845    2.29608054596113    7.30711858904867
C         0.00727729229939   -1.20935551675458    6.33749338474839
O        -0.39549902431156   -2.05417089631957    7.01216516794515
C        -1.55469452519553    0.47060616510437    5.42798436603128
O        -2.68917717863354    0.60626572567864    5.58152368945521
C        -0.08546456690157   -0.85050927940616    3.70642714973464
O        -0.38139730030232   -1.44018804632021    2.76515209466049

