50
CSD_code = TEXMIT | q = 0 | S = 0 | Stoichiometry = C11H26O8RuS4 | MND = 6
Ru        3.98789007693252    3.14684573674961    6.00983231342839
S         5.45103650879820    3.91220570408084    7.53105028875349
S         4.73441852127225    1.05081979231078    6.27530345837000
S         5.31349672517632    3.78182580178533    4.31120978438177
S         1.20941486743287    3.11605353430420    5.02417351152975
O         5.12156916832059    3.54909028214312    8.90238036013409
O         6.10106569681894    0.77508052433364    5.82647687800727
O         6.51142607893624    4.55418682788183    4.62845522220733
O         2.51506360124792    2.52924627809571    4.51937883020800
C         7.18370247407323    3.41092833159410    7.30586335223914
H         7.71852195896609    3.66792065107342    8.21267438162329
H         7.57472740058025    3.93180058194967    6.44109336005014
H         7.21143930919786    2.33910385320398    7.13456151884432
C         5.69949465079011    5.71050388878160    7.47951809391376
H         4.73562476780550    6.19648221102299    7.58632872123859
H         6.12563687282866    5.93270978652851    6.50770952557516
H         6.36230251134444    5.99388851362230    8.28896641245238
C         4.61689026695899    0.47720531922939    7.98867920796094
H         5.06508547412302   -0.50665880997404    8.06422254320021
H         3.56551651228708    0.47355319043704    8.25046307061059
H         5.13611313719506    1.19326220562021    8.61913825733941
C         3.66578559498125   -0.21470393058946    5.52402862141472
H         3.64902919958046   -0.04427999630238    4.45329442721054
H         2.67908863754508   -0.06449775194037    5.94537503272088
H         4.05866516381588   -1.19908799942324    5.75016448789604
C         5.83990673421798    2.44526705180783    3.19632707616503
H         6.44352186586617    2.86239271866015    2.39899673596611
H         4.94225076107750    1.97240971376364    2.81586904820945
H         6.41722890184780    1.74131035145747    3.78801474514637
C         4.38376005589735    4.76509733920173    3.10279494936585
H         3.92146812461983    5.57521011343145    3.65918948203565
H         3.62371246635762    4.12268440526659    2.67507601677630
H         5.06843265174311    5.14640727365603    2.35428968703789
C         0.12399093327389    1.65251492306695    5.08153691520589
H         0.37548897720179    0.98316760585962    4.26788086640439
H        -0.90631887749966    1.97946785600203    5.02780535956404
H         0.29963087223422    1.18709670671041    6.04540407968106
C         0.51744630387739    3.81955922337928    3.48682808277507
H         1.08032968823605    4.72410342624696    3.28604272778964
H        -0.51925006681245    4.07443565161829    3.66598730228065
H         0.61720822717134    3.11241063312439    2.67245158054904
O         2.45581521953820    2.44193875990243    7.27175822784899
O         3.04373595667309    5.01036993942247    5.78799475241640
O         0.46347515770945    2.87591168235448    8.07901301519394
O         1.26635960566939    6.20449512483871    6.25840762129819
C         1.58571700594769    3.24525076660932    7.78261164184961
C         2.02610244605845    4.69970460673207    7.96280226875309
H         3.01150661369313    4.69328928910085    8.43386857564889
H         1.29701026314336    5.22531865181595    8.57766136203944
C         2.09236493523901    5.37150165947510    6.58264621867936

