41
CSD_code = TEXRIX | q = 0 | S = 0 | Stoichiometry = C12H22NiO2S4 | MND = 4
Ni       -0.00238277489125    0.00326675566552   -0.00098592577034
S         1.51119958965404    0.77136685774619   -1.44068966296109
S         1.25398391824151    1.23741284901797    1.37007189081013
O         3.08858398426336    2.40543956274515   -0.05020451879821
C         2.08052603015448    1.57203916532566   -0.06261696933857
C         3.76562313531245    2.66968906780628   -1.28050775504756
C         4.87484197293863    3.67324337093753   -0.99948380753899
C         5.78918086716788    3.90618619085972   -2.20722837597249
C         6.97365236323596    4.77522346834034   -1.78899787868330
C         5.03982530359211    4.56410029473635   -3.36349004508663
H         4.17407133725401    1.72931946826856   -1.66989665567834
H         3.03939285546618    3.05454505560400   -2.00407086585641
H         4.42791652798277    4.61811602496976   -0.68639741182303
H         5.46639424031714    3.29202851956776   -0.16514704169167
H         6.17120946742711    2.93635577424246   -2.54446767527226
H         7.53289726693722    4.30530383831098   -0.98386284064601
H         7.64683119615366    4.92919040847722   -2.62847693883253
H         6.62718847257460    5.74697543627007   -1.44521601421059
H         4.58424075709738    5.49658495538022   -3.03792988733260
H         5.72765051995632    4.78665015086672   -4.17554084101680
H         4.26148004970206    3.91314063731087   -3.75216316584032
S        -1.51052429890397   -0.77199700557380    1.44095883385645
C        -2.07806709090219   -1.57491997560341    0.06347703506125
S        -1.25375707857991   -1.23781608251056   -1.36990791448276
O        -3.08790981794531   -2.40618092060780    0.05051527032902
C        -3.76557376264592   -2.66974397308678    1.28060464272048
C        -4.87494495803830   -3.67308496677431    0.99944971448436
C        -5.78932061943143   -3.90603183820491    2.20715870582718
C        -6.97378540738278   -4.77503790649908    1.78885290986813
H        -7.53294701882797   -4.30509570840781    0.98367550557908
H        -7.64702607781220   -4.92896438720180    2.62828878582887
H        -6.62734599434665   -5.74680997999831    1.44510073882267
C        -5.04006506910695   -4.56402244331885    3.36345672101351
H        -4.58449645583620   -5.49652615444167    3.03792436698679
H        -5.72792636040446   -4.78655661375473    4.17548443990647
H        -4.26170429887277   -3.91311043755684    3.75217597062892
H        -6.17130124291565   -2.93617759913051    2.54437410378797
H        -4.42810726701845   -4.61803638025488    0.68645745927134
H        -5.46631722692143   -3.29181827204194    0.16501517410416
H        -4.17355127648067   -1.72918394284900    1.67004159096541
H        -3.03963575816461   -3.05506326463302    2.00419833202880

