59
CSD_code = TEXSOG | q = 0 | S = 0 | Stoichiometry = C20H32Cl2N4Pd | MND = 4
Pd        3.26363341863596    7.61305104910819    3.30623218046346
Cl        2.71543342549251    5.68475834182579    2.21955067760892
Cl        1.42733650291323    7.48161950590883    4.66647673521437
N         4.71732377079456    8.05698378765156    0.76051749647103
N         5.88498405581615    6.80631158073199    2.05689065331255
N         2.76198261805264   10.39017076434756    4.17195813005097
N         4.34715210292321    9.55285686534296    5.35509160623175
C         3.68710883380785   11.31639060811943   -0.28849630736776
H         3.31038980652197   11.13320754843245   -1.28136057503065
H         3.87195493277711   12.34530367393940   -0.03207424252101
C         3.89709439136949   10.33464928141372    0.56691714874100
H         4.27716799899929   10.52613501728018    1.56382172309514
C         3.64036170233724    8.88484350704168    0.27363890977511
H         2.72045701583487    8.55207346015421    0.79484231820946
H         3.51273185976613    8.71886050910229   -0.79852404471006
C         5.79297746644366    7.62778661058733    0.02944267244127
H         5.94367233199009    7.91058886899976   -0.99196336328124
C         6.52454047613237    6.83388482605518    0.84435709353681
H         7.43199119839591    6.29671362636609    0.66149306917020
C         4.77487749291220    7.56269074021550    2.01054173187275
C         6.23520511043989    5.94056129702434    3.15525492736934
H         5.59021217313607    6.21913215302989    4.00053395984962
H         7.28666034604965    6.09478014003294    3.42347409116558
C         5.96883264986136    4.47421633383132    2.80826578812569
H         4.93356658238444    4.39490431509425    2.46768440814762
H         6.62467083317216    4.15725629647981    1.99431266540768
C         6.17331857023596    3.57157865287734    4.02081443955133
H         5.49719348356080    3.88937035186469    4.81711457945570
H         7.19863291737952    3.67187848011598    4.38885313985333
C         5.89205090672342    2.11471285440434    3.67693984629300
H         6.02668908521012    1.48150607908951    4.55064002694931
H         6.56302373985630    1.76776210430157    2.89373068278831
H         4.86936886153207    2.00553132634371    3.32548940549138
C        -0.42896102456659   11.75966052732515    3.71069575352278
H        -0.19753289990327   12.51931812723585    2.97996843707246
H        -1.36335419185125   11.87002056761913    4.23244648657981
C         0.37810084041505   10.74214979442699    3.93969364039210
H         0.14201130653423    9.97422191400876    4.66335524791007
C         1.67738878056277   10.52530252323412    3.22376563829058
H         1.61954969818028    9.56898744568666    2.66911154262672
H         1.88611950976498   11.34595925906724    2.52764016717715
C         3.02814010664578   11.28952533912905    5.17015644316847
H         2.48901523437833   12.20878607063614    5.26919183713375
C         4.02589360631088   10.76207096073289    5.91559298904599
H         4.52177279593051   11.14173196285473    6.78515864806884
C         3.56765566685871    9.31906572087441    4.28186721252990
C         5.32071736753078    8.62481174581428    5.87907535006326
H         5.85422418810811    9.12204117751863    6.69389796790765
H         6.03632865951283    8.38402283982975    5.08256283487094
C         4.65678563100968    7.34036691879625    6.39124852269030
H         4.05329263579372    6.89608013968685    5.57580259642637
H         5.43856812438512    6.63119145177195    6.67269467866874
C         3.73463812391458    7.59614560315822    7.58064475570989
H         2.98893184745391    8.34230983450082    7.30031719768839
H         4.31519946309695    7.98623037560675    8.42211471190224
C         3.01024956354163    6.32043511071324    7.98831357527604
H         2.37126566032268    6.50194314907438    8.84865873723433
H         3.71931860043962    5.53466469259534    8.24228916528210
H         2.38698404409476    5.97848618980552    7.16597428896013

