41
CSD_code = TEXSIA | q = 0 | S = 0 | Stoichiometry = C14H20Cl2N4Pd | MND = 4
Pd       -0.00005527160927    0.00002689367340   -0.00002988909544
Cl        1.35800646532757   -1.69528261771788   -0.76488482675643
N         1.91560737989024    2.25896447502346   -0.36220793486892
N         2.61279150832131    0.97136044670191    1.20827864307583
C         1.60744801730013    1.15033995019430    0.33599833520213
C         3.10783433089576    2.77112999638174    0.06826151289334
H         3.54366205417337    3.65317429975149   -0.35444194576947
C         3.54748215951244    1.96097598952459    1.06118207852338
H         4.43406597527949    2.00855070996305    1.65950648791412
C         2.67153951772714   -0.09927338633100    2.16765794862365
H         2.03874772102488   -0.91966365693945    1.80949928431175
H         2.31180306708474    0.23841803807550    3.14379195813481
H         3.69713218487708   -0.45494806637637    2.26559658452726
C         1.07132967968050    2.82443994494932   -1.39452238527280
H         1.51826226844231    3.75971798782911   -1.73912345473636
H         0.08779180662974    3.03143913340352   -0.94382532488759
C         0.87899730194575    1.86628012633993   -2.53787625987171
H         0.53403019841049    0.86338704921446   -2.24847847101341
C         1.08593891126750    2.17548465576765   -3.80261223262332
H         1.42580742264237    3.15480957997601   -4.10179524001972
H         0.91877668620260    1.46799374345282   -4.59619031041742
Cl       -1.35810791872142    1.69523407589493    0.76488047838686
N        -1.91560875659349   -2.25903127288202    0.36223581013077
N        -2.61263081281822   -0.97162711820348   -1.20849244266596
C        -1.60729221481216   -1.15059637602012   -0.33620815209910
C        -3.10791367891472   -2.77110693330095   -0.06811074836524
H        -3.54392892461266   -3.65295777434517    0.35480792368898
C        -3.54746687249571   -1.96108816906028   -1.06117922700244
H        -4.43404823447153   -2.00864748886524   -1.65950617019657
C        -2.67144963538299    0.09894340837849   -2.16790622809906
H        -2.03663223142810    0.91842232494968   -1.81098842761441
H        -2.31413405121005   -0.23951284726505   -3.14475503704280
H        -3.69671729629794    0.45637056817617   -2.26396795707387
C        -1.07136623698591   -2.82431589307630    1.39467683178088
H        -1.51821236927447   -3.75961754810693    1.73932386394934
H        -0.08776431266287   -3.03124441160484    0.94407368653338
C        -0.87925346806535   -1.86599324677280    2.53793120374573
H        -0.53435157134582   -0.86311163493348    2.24841112226865
C        -1.08607562144179   -2.17516305765452    3.80270459510494
H        -1.42536260881156   -3.15461059685761    4.10204233615625
H        -0.91868256867525   -1.46767130131220    4.59624198054328

