82
CSD_code = TEXWEY | q = 0 | S = 0 | Stoichiometry = C43H36P2Pd | MND = 4
Pd        0.58516890089057    1.74846875249126    3.04991868593720
P         1.62093539008413    0.21428025313523    4.41189074036594
P         2.33259826750838    2.78951889194894    1.96856290841663
C        -1.09009894099674    2.70061918239906    2.45041096163893
C        -1.42795870347917    1.79388126410242    3.30457879527605
C        -2.62402466263823    1.47179578402284    3.99355826145874
C        -3.58968285787401    2.41896249284769    4.05274427765862
C        -3.47037352357581    3.79184465369055    3.61851106338206
C        -2.70521798225947    4.37306432045530    2.68030738249686
C        -1.83866777175530    3.69694368845550    1.64929163839727
C         0.74925088578987   -0.76611219641371    5.68029318792374
C         1.08158915488799   -0.77632889888966    7.02905767129784
C         0.35114358988294   -1.55575083043310    7.90933069172451
C        -0.70617622959012   -2.32429694215041    7.45132458650119
C        -1.04539364365699   -2.30995359826633    6.10713431794621
C        -0.32299974500192   -1.52872396374748    5.22658181588751
C         2.82672949647287   -1.00330425400980    3.79475088580080
C         3.11611245383219   -0.95560932209596    2.43641756021646
C         4.04820920652778   -1.81694069758659    1.88925766903299
C         4.68807597099344   -2.73947882288289    2.69994465107821
C         4.38145660469093   -2.81136569872874    4.05016766030861
C         3.44955941668693   -1.95056925538968    4.60038287972284
C         2.62584630711568    1.35372428194448    5.42151416213733
C         3.92627797993944    1.13304085757003    5.85458749580886
C         4.59629880813574    2.12471113875165    6.55225853225923
C         3.98120734866050    3.33839263447889    6.80922004444224
C         2.68427133975871    3.56714272407378    6.37265249583711
C         2.00905172273409    2.57956637010673    5.68177940790238
C         1.85404189523902    2.74255092612890    0.20618842792123
C         2.31670100221962    3.62979624861299   -0.75781654900428
C         1.88294236810162    3.51129831687871   -2.06644885432355
C         0.99593349457718    2.50740232513986   -2.42061884356646
C         0.53268098071155    1.61887128457679   -1.46310334213750
C         0.95594057662307    1.73903412153047   -0.15252141793911
C         2.47759912782191    4.56776734129654    2.34024544724204
C         1.43844572691438    5.13675340249391    3.06955288864876
C         1.45946526532467    6.48256146346245    3.38495667545276
C         2.52573779458087    7.26816849699628    2.97916904998938
C         3.57272202090572    6.70300302436302    2.26821280908530
C         3.55483223084850    5.35717867868788    1.95045333258361
C         4.08826763054407    2.30405099450123    1.89667643268415
C         4.87619841628260    2.57349612940230    3.01317334030461
C         6.17468436615379    2.10931570391435    3.07950817964651
C         6.69928268072345    1.36509145419761    2.03436536362670
C         5.92120897262359    1.09382459997138    0.92176170481509
C         4.61882129736163    1.55459366716181    0.85263243319668
H        -2.75659685807013    0.51329440196351    4.48037255814055
H        -4.49190410572822    2.19345547153583    4.60913009491456
H        -4.08972734459776    4.46773076388425    4.20181612950467
H        -2.70776924534003    5.45666750212769    2.63736641839730
H        -2.44547787691499    3.17981702789434    0.89347533766381
H        -1.19862182861348    4.42148966092677    1.13712069733054
H         1.90162183399588   -0.16976195585702    7.38928445145334
H         0.60738865071454   -1.56197999589586    8.95926701315836
H        -1.27209965664895   -2.92968049184330    8.14429151162835
H        -1.87640387863344   -2.90250529420510    5.75227343610020
H        -0.58444909983144   -1.48630383778077    4.17449413397347
H         2.59156506802254   -0.23287964867160    1.81631800234194
H         4.27366859931274   -1.77291068520061    0.83387454031473
H         5.41974777140312   -3.41331822053741    2.27855389883970
H         4.87111010049360   -3.54427764951999    4.67547258941761
H         3.19600136728654   -2.01729631230906    5.64973620852069
H         4.42114630054601    0.19781603408814    5.63411083403188
H         5.60822086118214    1.95075831110242    6.88963967881371
H         4.51404136633716    4.11092240202384    7.34445290988305
H         2.20837682655992    4.51792930236476    6.56480168143242
H         0.98070174374154    2.74225130258583    5.33316760260458
H         3.00462083347219    4.41632242424703   -0.48278670305513
H         2.23696380462634    4.20661749711887   -2.81407290244744
H         0.66058791033939    2.42153651717957   -3.44392727623832
H        -0.16341026465824    0.83990846242354   -1.73869577094231
H         0.57609287247875    1.05666413168226    0.62080315900645
H         0.61224286376454    4.50267304051817    3.39207977646190
H         0.64828935204685    6.91880297434310    3.94998265432511
H         2.54702634591530    8.32028386946909    3.22360911477701
H         4.40899862947462    7.31538482095012    1.96220176347541
H         4.38464101427040    4.91544269983608    1.41547598061606
H         4.45889510300014    3.15403154523006    3.82586745978486
H         6.77866218060860    2.32472871861477    3.94909556306758
H         7.71347831555353    0.99724716445933    2.08759962235967
H         6.33087424103285    0.51743247851362    0.10456185164472
H         4.01140157112233    1.33522457738517   -0.01533153011624

