51
CSD_code = TEXWIC | q = 0 | S = 0 | Stoichiometry = C25H22FeIOP | MND = 8
I        -0.85992283266476    1.92295986915741    8.03672293555394
Fe       -2.04944868650048    5.01728437875917    6.21462564994532
P        -3.08878232906354    6.59603182962668    5.18206396842156
O        -4.40646426601466    3.89827290046616    7.41516085219065
C        -0.74330706666065    3.35205161813280    6.50059026436148
C         0.06734733396143    4.50849373887853    6.52078910775610
C        -0.08202868019310    5.14386307738033    5.28068173846805
C        -0.95933685199478    4.35580678965653    4.47866100561502
C        -1.35436308048683    3.23319800296912    5.22717386450123
C        -3.49231632345801    4.37745369616202    6.91007294477700
C        -2.00039192496704    6.03984244825217    7.91962675096235
C        -4.32829171297222    6.03761693131340    3.96030266661805
C        -5.10184478119503    6.94696333320519    3.24310640278106
C        -6.03931455597426    6.49025249362774    2.33586167489632
C        -6.21555241114938    5.12850321717739    2.14262791671111
C        -5.45419280948731    4.22096411917942    2.86006285898031
C        -4.51311609855317    4.67499466863995    3.76719261277021
C        -4.11471121332016    7.85550000276692    6.02384578649091
C        -3.92066258973018    9.22874466121225    5.94238839032098
C        -4.77250055953618   10.08936774319874    6.61490360419140
C        -5.82029809432156    9.59021254740722    7.36842762539725
C        -6.02239772957758    8.22094230288413    7.44873005648536
C        -5.17431467104203    7.35945839790453    6.78111703954423
C        -1.95821811757250    7.61663096681930    4.17809992163411
C        -1.00005529536099    8.34752221892087    4.87987252555132
C        -0.04700600740383    9.08364123294222    4.20384493855910
C        -0.02804681840415    9.07963972003670    2.81680573432149
C        -0.95987121578167    8.33454586454910    2.11491181290298
C        -1.92131635192761    7.60057298949014    2.78987761804597
H         0.71229105024542    4.81121886317195    7.32790622858050
H         0.47253588173131    6.00066399692064    4.93938192822476
H        -1.17232407362598    4.52751623987808    3.43580363466063
H        -1.93442104460734    2.39343256766006    4.88310754185075
H        -4.96458649447677    8.00827256618776    3.40218320459087
H        -6.63780654488464    7.19644170493256    1.77898481732399
H        -6.95144887756359    4.77623468055949    1.43501431750366
H        -5.59732523572881    3.16035705861537    2.71465499710420
H        -3.91573036856035    3.98550887569889    4.34790512882073
H        -3.10978145262262    9.63199818616694    5.35307006438535
H        -4.61516008429475   11.15602816490843    6.54768516045903
H        -6.47968964811336   10.26604564160121    7.89241994695548
H        -6.83979167874742    7.82727353749328    8.03455103249480
H        -5.32088735203015    6.28984977629315    6.83883586545557
H        -1.01418021244132    8.31950012886954    5.96159664865043
H         0.68761730910347    9.65425528122972    4.75353370493037
H         0.71913383028768    9.65020599423086    2.28539922187380
H        -0.93684313404989    8.32062842536848    1.03490206800814
H        -2.64211540623030    7.01541583192743    2.23616695820916
H        -2.89121756834815    6.58766305960865    8.21661624258103
H        -1.74321946804155    5.36527006464610    8.73456387166940
H        -1.19152368548439    6.76218759377106    7.81246914733077

