70
CSD_code = TEXXEA | q = 0 | S = 0 | Stoichiometry = C34H30AgN2O2P | MND = 5
Ag        0.77944669669567    9.37716113045857   12.00255384451969
C        -1.88431728652476    9.95554204443268   11.71844571242007
O        -1.05775744944036   10.69403285098416   11.14312728466952
O        -1.56093067783553    8.98821302575848   12.43965979833992
C        -3.37030472241020   10.22830474385316   11.50823525218259
N         1.91924714363081    9.23821041502885   14.11706391702577
C         2.88265436886692   10.14553892310086   14.33902880739103
C         3.52498951671665   10.27101322965693   15.59185813216083
C         3.10388706416354    9.41176170910065   16.62046094987493
C         2.10987579048270    8.50017563074416   16.37053512768986
C         1.53427545800831    8.43484623475067   15.09004342535792
C         0.47164503921919    7.44253174455248   14.76622890471409
C         4.54983976057192   11.24100488598362   15.77196933303934
N         2.63219339220893   10.91528679168000   12.09283580445542
C         3.26893355841024   11.01985976087700   13.26667103233520
C         4.29364890690157   11.96913013217072   13.48401715813458
C         4.63317210907363   12.80580636248231   12.40782430956417
C         3.96797538871646   12.67431092695101   11.21507081197854
C         2.95569912612359   11.70791464495868   11.09112240139331
C         2.19451276583078   11.52476176787134    9.82352855792305
C         4.92332771364758   12.05539471157208   14.75641285882758
P         1.36448484888928    7.66621077997796   10.23683632779859
C         0.39967031891028    7.66871460380166    8.68574648203822
C        -0.44349010141228    8.74354635345228    8.42921982599710
C        -1.19457997748303    8.76974037532747    7.26624088258378
C        -1.10770581013416    7.72703243583151    6.35950404850412
C        -0.27322863716290    6.64980743896432    6.61748730127867
C         0.47690231581303    6.61568947400821    7.77741395368687
C         0.99423955325422    5.96644052161208   10.78798654770471
C        -0.18400923339481    5.81609178771835   11.51660924420766
C        -0.58263462298429    4.56233535428148   11.94043883031806
C         0.19225485830793    3.45157523117561   11.64415507606253
C         1.36732117005083    3.59911469597592   10.92593747022048
C         1.77099534491271    4.85110371072053   10.49500292180598
C         3.07772213634164    7.52810049727025    9.63802843905786
C         4.05435629674993    7.21918931126558   10.58407964996799
C         5.38674388399917    7.17445884757476   10.22562587199309
C         5.76283266443532    7.45975000908428    8.92118682024236
C         4.80118118791164    7.79836808123320    7.98428161837721
C         3.46382709663344    7.83910994466634    8.33868372046189
H        -3.77461219228593    9.45958920087654   10.85202264451252
H        -3.89036842999816   10.17582488288592   12.46115010066111
H        -3.51058947520728   11.20453678867110   11.05318135398120
H         3.56691357374745    9.48047479332705   17.59489939610348
H         1.76599027320917    7.83073371180496   17.14427938595560
H         0.89766686059222    6.62624779992373   14.18089776640590
H         0.02441853603950    7.03155413357341   15.66709628465295
H        -0.29690127845316    7.91875986249504   14.15421236213678
H         5.02059471186652   11.31100370438690   16.74222287409949
H         5.41029026019605   13.54661823736452   12.53494003956540
H         4.20770914710240   13.30846581341120   10.37515532272437
H         2.50646027389210   10.59519829296628    9.34283607200303
H         1.13180061835110   11.43758844352153   10.05840238745863
H         2.35588570710344   12.35076007746006    9.13656856692609
H         5.70141230742735   12.79287230429043   14.89272198887238
H        -0.51909365404463    9.54594971516902    9.15162500251347
H        -1.85090752700483    9.60472908023905    7.07039282623710
H        -1.69366607063276    7.74754972591048    5.45206650686402
H        -0.21065768588833    5.83327965258698    5.91236228714766
H         1.12373784875580    5.77371389968242    7.98257519177762
H        -0.77570974158557    6.69375166259020   11.75002057877361
H        -1.49656704756694    4.45029216365187   12.50489993658781
H        -0.11760004958665    2.47083240724436   11.97458898341930
H         1.97220715628099    2.73351408547053   10.69577834143372
H         2.69250091591974    4.95882924911310    9.93920890966503
H         3.74990892804465    7.01440295365967   11.60297809041682
H         6.13690936229614    6.92215815149155   10.96134481116151
H         6.80481967883956    7.42511666623437    8.63902872237603
H         5.09345663017960    8.03231480490200    6.97060138079128
H         2.71759340560901    8.10835661428991    7.60398342840379

