71
CSD_code = TEXXUQ | q = 0 | S = 0 | Stoichiometry = C33H32AgN2O2P | MND = 4
Ag        4.41125540778999    2.07086040408089    3.49315888043859
C         2.40622188742440    0.54721721871842    2.49288394267557
C         1.40315887414256   -0.38125146065442    1.81414882207081
O         3.07484469066340    0.09294155015095    3.44555304407268
O         2.50923626452058    1.71777795889277    2.07306087797911
N         5.14442256100833    3.19497036258636    1.40176724182861
C         5.18130342756490    2.21742961176860    0.49210954772230
C         5.12337172615956    2.48878214901792   -0.87508843005197
C         4.98143312558272    3.79818413407775   -1.29613099273606
C         4.91476043193720    4.80289634600144   -0.34373160588289
C         5.01355604947091    4.44469912613978    0.99132936061325
N         5.83193369941598    0.71499744835802    2.23157303838034
C         5.28201861731350    0.84565227948095    1.01461142746374
C         4.79086636373985   -0.24695139196933    0.30587942610864
C         4.88445823784334   -1.50965344616842    0.86328995293769
C         5.48339708808057   -1.64630591341521    2.10531192374537
C         5.93545669905490   -0.50575681433803    2.74494404807578
P         5.06562409504530    3.53014551965428    5.40050056649064
C         3.98265925526951    3.40643665875142    6.86467714723471
C         3.66560854336650    2.13189044376712    7.35727198085731
C         4.24688851696794    0.90344783433670    6.73803701912468
C         2.80076339876296    2.03592141858945    8.43902090035672
C         2.25707662101450    3.16448750032472    9.02770554642985
C         2.57815656665719    4.41984321365070    8.54100488238050
C         3.43501191394138    4.53833708993063    7.46222443226111
C         4.96658208981756    5.30323772441563    4.98181141281304
C         3.83345694524632    5.77781081555848    4.30137753466359
C         2.66856400647762    4.88814994949804    4.01729525289213
C         3.80572007599500    7.10939956802442    3.90711818204001
C         4.86196079335806    7.96367361636429    4.17290337124058
C         5.97201399378825    7.49353078124470    4.85255948674208
C         6.02280236983909    6.17004111370167    5.24994970994695
C         6.72640896891563    3.39249360023087    6.14854964014986
C         7.84697516195994    3.30469045091292    5.30932538723906
C         7.70079079563478    3.39034949428771    3.82587611786209
C         9.09973071446693    3.14716662540022    5.88577131843369
C         9.25652385736801    3.07276281122091    7.25906284909885
C         8.14812380636378    3.15751512538368    8.08307930107141
C         6.89087125741116    3.31312699748166    7.52871806781075
H         1.25905964836577   -0.08113941695825    0.77984580012057
H         1.75113876303262   -1.40914553195783    1.87227535913389
H         0.45309697766463   -0.30236321168847    2.33893528950880
H         5.19965052416150    1.69020129029612   -1.59614364922056
H         4.92519668391712    4.03100040654331   -2.34970945564980
H         4.79461423416701    5.83644154436971   -0.62780223368671
H         4.99139234979226    5.19766119427316    1.76949059734208
H         4.30497870492804   -0.10633466016566   -0.64665829780736
H         4.49091170670211   -2.36907439305547    0.34048690542513
H         5.58044952366991   -2.61168546697479    2.57600518407159
H         6.41562122438348   -0.56597934389828    3.71448546470741
H         5.33196959392298    0.98952663208104    6.65615759689616
H         4.00993311634290    0.02178520631243    7.32891045679466
H         3.83955188272616    0.75490683666303    5.72916124844762
H         2.54727035951495    1.05867707260165    8.82488440673858
H         1.58510294275896    3.06386654676938    9.86727695604119
H         2.16285580054366    5.30563004034991    8.99861201523798
H         3.68636887865476    5.51901627410512    7.08233578427797
H         2.96755069703660    4.03093965630192    3.39516938630117
H         1.88475186440237    5.42983849134110    3.49307183478562
H         2.25356085398455    4.49116952073898    4.94496400744987
H         2.93824425628005    7.48315898089243    3.38127162855691
H         4.81569478165438    8.99465648157400    3.85430062620028
H         6.79739187517911    8.15404640855720    5.07362504252812
H         6.89021296088553    5.80656693173837    5.78242233246384
H         7.24909931604465    4.34002298599594    3.53925255586620
H         8.66686092272347    3.30264943391236    3.33460919905475
H         7.04623613762354    2.59366701635996    3.45915241931309
H         9.96846103775350    3.08085933939398    5.24582210738144
H        10.24179131153930    2.94957617711491    7.68397817652281
H         8.25969985516936    3.10305780434109    9.15586214445026
H         6.02787231518962    3.37855183672535    8.17583849814556

