70
CSD_code = TEYBOP | q = 0 | S = 0 | Stoichiometry = C34H27AgF3N2O2P | MND = 4
Ag        3.98534982578373    7.55596059933779   12.74063837009336
C         3.90054466475581    7.67079370130418   10.09390505029748
O         4.16411614855615    8.73696526739668   10.64969876288289
O         3.99966458219802    6.52364290653970   10.53089053748923
C         3.35385230887669    7.79072134901057    8.63162183670565
F         2.70350858820334    8.94979590111683    8.42155191057230
F         2.47543151192604    6.81436719577397    8.33228544922003
F         4.32608895035552    7.72435977029046    7.70613074176436
N         1.79732508053304    6.57287081691472   12.43695565794296
C         1.16531986227927    7.46620124313324   11.65111961669871
C         0.29748066559594    7.07729575595853   10.60921862507210
C         0.11515297860552    5.69892005508599   10.39973809941399
C         0.76858883026502    4.80847721365926   11.20701469347917
C         1.61168945270253    5.28676090271466   12.22569199112893
C        -0.32344885677158    8.06374134467900    9.79534769191363
C         2.32926356562647    4.32256104944811   13.11352564974301
N         2.27597519706832    9.21705237465415   12.83787492071630
C         1.41957294532616    8.86447007915098   11.86277543301044
C         0.79898862287511    9.81292080543868   11.02261082769184
C         1.11946254660038   11.16572960207304   11.22951317166643
C         2.00482555433380   11.50197949365359   12.21859556905666
C         2.57177719373927   10.48869610367822   13.00923987086760
C        -0.08183512745481    9.38137319349386    9.99393409524673
C         3.56254667171478   10.81607138174188   14.07962913273741
P         5.35664916434884    6.99593397023656   14.68642931346829
C         5.83228809551016    5.23467102639125   14.60531955972942
C         5.81913312357845    4.63351757663537   13.34951043405997
C         6.20000344405795    3.31099341683054   13.20906493533747
C         6.58682287854246    2.58023089577208   14.32078441973207
C         6.58963581056954    3.17263236691882   15.57383906233207
C         6.21578804970462    4.49623846372116   15.72024513915530
C         6.94155021786870    7.78977109979695   15.10730247476809
C         6.90929107988091    9.07384280142976   15.64945904983867
C         8.08582387416549    9.74363291806499   15.92218896717048
C         9.30537619545910    9.14613463352279   15.64216042003236
C         9.34218454637229    7.87996925440484   15.08270912545297
C         8.16669671733432    7.20275901711786   14.80940830210275
C         4.46204313904224    7.09366221499410   16.27283987735794
C         3.07166588717553    7.09537577668074   16.20850077150384
C         2.32059989726933    7.13290233682785   17.36890977635355
C         2.95277638316497    7.17616409638628   18.60126630450140
C         4.33654740718368    7.19155958747231   18.66988589779314
C         5.09284856877643    7.15207414015329   17.51217295095850
H        -0.52541214049808    5.36442255762591    9.59678249982705
H         0.66129776557380    3.74391816132925   11.06544428275147
H        -0.97332353056988    7.73056031968505    8.99958345893266
H         2.89489996567842    4.86222014765950   13.87240867460665
H         3.01918036866810    3.72509680763782   12.52085775271475
H         1.62232660819726    3.64847959933135   13.59498544049857
H         0.67441839979842   11.91924109003317   10.59568193306401
H         2.28423155846516   12.53048657721700   12.39016413653811
H        -0.53285744928348   10.13114727114951    9.36081913663143
H         3.61328751564435    9.99416587087145   14.79327218840415
H         3.29842179371203   11.73851493304964   14.59204247517474
H         4.54593306838782   10.94329149104860   13.62609757487264
H         5.50212303647485    5.21113379386817   12.48539264961054
H         6.19394724089074    2.85044823553320   12.23234325409160
H         6.88372058970396    1.54747406316770   14.21288584482782
H         6.88706760225305    2.60078213649976   16.44072784939980
H         6.21760605986854    4.95344170719958   16.69892317905748
H         5.95396838532104    9.53596710538752   15.86139795348072
H         8.05477713160244   10.73478372356594   16.35064799423204
H        10.22511225743584    9.67047727616744   15.85453116463555
H        10.29136271782662    7.41719755937162   14.85549528488119
H         8.19884822183605    6.21728604584037   14.36623764232254
H         2.59229121892558    7.08439053804119   15.23404853065864
H         1.24221406691564    7.13483184470205   17.31319332151849
H         2.36835555459071    7.20749940405813   19.50883330870818
H         4.82936573950547    7.23656269565927   19.63020342525351
H         6.17207000928898    7.18448534467042   17.57129455629815

