71
CSD_code = TEYFEL | q = 0 | S = 0 | Stoichiometry = C39H24IrN3OS3 | MND = 6
Ir        2.99255960960804    4.48309536736123    6.97134697390535
S         5.43150834997966    7.91558176020329    8.50547189872138
S         5.47029273948153    2.10942685229277   10.04281460100582
S         0.11112024032084    6.01935435467965    3.89757835665104
O         1.83205170313266    2.69320252035120    7.10450316031353
N         2.70302349494517    5.02503605833803    8.92190924780926
N         4.55959513233422    3.20391030439878    7.87947346056090
N         3.28060021963848    3.87322922128479    5.05892759279898
C         1.52633535084898    5.53966179281684    6.07401143920139
C         6.55038081381421    4.44149029217779    7.10494510289676
H         6.08467972110672    4.74794135373704    6.18305362124112
C         4.31782843678524    6.57494192135909    8.32005405100366
C         6.41187968626417    8.87325509440605    6.07799331431504
H         6.99726462345010    9.60919100057072    6.60754045508074
C         3.59520458108763    5.94384472983423    9.37560527867881
C         1.40802592487478    5.20467958909603    4.74594556726292
C         1.91731722628603    1.77253526285811    7.97753859811513
C         2.90933048126844    0.59856756672068    9.88691631754395
H         3.72888568657599    0.48792469393664   10.58461669804100
C         0.78819385725974   -0.11025067958769    9.05465409283506
H        -0.06008038277477   -0.77773031031589    9.11041056550146
C         4.83650339744971    7.00256722988467    6.11737791871756
C         0.31999910404199    7.12166401946591    7.67770487189921
H         0.96150853084564    6.87671207880029    8.50918755615189
C         1.90420056074718    4.42367959163114    9.79873141700318
H         1.17329227213543    3.73702707985215    9.39637944329844
C         2.32989838342682    4.27680418650558    4.17666118373021
C         5.84991399665365    3.64530737382731    8.00932390343805
C        -0.30593068302847    6.85438106982938    5.36409335665658
C         0.53892912501283    6.50267051808776    6.44298040381869
C         1.97852124740385    4.65336088865573   11.15908879884356
H         1.31425827309133    4.13090815429080   11.82766751204919
C         0.83469072284649    0.85362694179611    8.08999016979230
H         0.03083522394862    0.97353790105834    7.37843990514771
C         4.87951410716380    6.95693735888433    4.72033355784966
H         4.28288722244846    6.22295436455428    4.20062931161115
C         4.21139128145737    2.35086513270361    8.81067888805648
C         1.83019943034112   -0.23571031283277    9.98091282772847
H         1.78720429614697   -0.99069991799907   10.75042127146694
C         6.51013860449145    3.18881336578403    9.16418318517847
C         3.01011112027464    1.59273555934835    8.89544733177648
C         4.19210175405436    2.99513800744777    4.65124520104765
H         4.92587978031861    2.68188155515315    5.38038567179917
C         2.92081939744913    5.55803137526274   11.63913974781824
H         3.01235205941282    5.74393542967763   12.69837913100037
C         3.72532353307975    6.22135301863806   10.73817333484587
H         4.45926283473101    6.94616151601732   11.05408443866792
C         6.43629062142931    8.79648605801654    4.70094600140058
H         7.05202928606578    9.48226352488367    4.13847719869895
C        -0.69964981915017    8.03444179747581    7.81976569974743
H        -0.86543008460284    8.51007286054817    8.77522571978086
C         5.66997240859592    7.84498494090185    4.02744296923814
H         5.69975980000818    7.80901405055343    2.94846712245653
C         7.84009513393210    4.82378076344166    7.40739785717298
H         8.37834538388378    5.45298170251308    6.71459759428423
C         5.61293603014096    7.98227221883526    6.77768130441254
C         8.45888753567369    4.41021322669684    8.58353218100590
H         9.46607686693568    4.73067681542819    8.80110425965697
C         7.80386426328815    3.57319810431750    9.46626652740178
H         8.28169384861402    3.21934539124880   10.36631563603937
C         2.30835360284996    3.80933471094357    2.86066600108215
H         1.53439474626063    4.16027700120899    2.19613478492325
C        -1.52624855431225    8.35811877483205    6.74356456782314
H        -2.32189860048135    9.07567898072664    6.87713178151224
C        -1.33396179792605    7.77313393002576    5.50948937039656
H        -1.96421361348073    8.02017032347845    4.66899082131494
C         3.26659874501239    2.90857049222547    2.44997077551502
H         3.26990080759711    2.52975288541865    1.43933148684947
C         4.22795321963103    2.49120261202208    3.36527485210024
H         4.99164517503054    1.78339246973024    3.08642393878224
C         4.10210192276378    6.17300413167254    7.02205081554158

