50
CSD_code = TEYFEK | q = 0 | S = 0 | Stoichiometry = C25H18Br2HgN4 | MND = 4
Hg       -0.25332067317139    8.57647029795391   10.45776012993260
Br       -2.08847964231200    9.71158509753116   11.60222509463587
Br        1.69578180983871    8.52537921085994    8.98555025996669
C         1.62572466568313    6.56722868691372   12.30677034576230
C         2.16385251304053    7.89225428532898   12.64822512211650
N         0.43535461452079    6.55055219793452   11.70417549985726
C         3.48246304275607    8.22010485377377   12.34212882594550
H         4.11799385836883    7.48964178933045   11.86425244266671
C         0.54551529163925    4.17536446689852   11.57341594290536
H         0.11577491380490    3.25192300733381   11.21974509691340
C        -2.33220219685176    4.40222615265410   10.77316426639931
H        -2.11728012891696    3.54599901901909   11.39248547788396
C        -3.54123822941300    4.50327941665356   10.10813640537613
H        -4.27616461164808    3.71613341325536   10.18739561905180
C         1.33554238660935    8.85224288272572   13.23580033573721
H         0.33516066787520    8.57809022709209   13.54922808524970
N        -1.66842118694957    6.53483021717363    9.94334674538574
C        -1.40810059290079    5.43889650798738   10.66231098671031
C        -0.10109771299707    5.38213572595103   11.34501611486248
C         3.12866910635586   10.44614665470397   13.16833938594294
H         3.50126181043371   11.44160676193404   13.35771666944040
C        -3.79212858238857    5.63300869441739    9.34666720674260
H        -4.71791283071314    5.75329482582034    8.80797746314168
C         1.82226629346521   10.12240325368723   13.49743714492581
H         1.17744183158540   10.85635896004903   13.95755067462491
C         1.79189056900685    4.17063419070433   12.20159521250956
C         3.95678583029999    9.49335880109768   12.59736761599272
H         4.97366056887765    9.74622543260195   12.33798006517249
C        -2.82507914235203    6.62373191817342    9.30317910607938
H        -2.98446786030905    7.52844079494816    8.72991726578493
C         2.32912907039065    5.39836911443092   12.57602669741762
H         3.27493809126854    5.45357202609953   13.09130370731910
C         2.51065806605605    2.91825493821796   12.45260951773623
C         3.89750530788948    2.85330826758095   12.31398251672685
H         4.44417956967772    3.72592151598016   11.99074671488249
C         1.82582484863505    1.76796737817282   12.83936855520595
H         0.75536316245718    1.80293840813041   12.97784013746598
C         3.88197504070964    0.53253354675392   12.94262353440589
C         4.57475820564059    1.67743878453755   12.54885015282066
H         5.64497151961583    1.61504238085604   12.43691241803608
C         2.49802885809362    0.58890497366714   13.08939868223633
H         1.93971437998465   -0.27817600623697   13.40419196309332
N         4.60290652234309   -0.63413967986538   13.18251908414820
N         5.94014786385403   -0.61908805789091   13.12823293190942
C         4.14172867499066   -1.87646722481413   13.48607410493081
H         3.09946614432688   -2.10364859149719   13.56928795615663
C         5.23632320881225   -2.68648720927864   13.63184426465003
H         5.25302147023383   -3.72959751441726   13.87064650796705
C         6.33572957487972   -1.84043202070256   13.39661919430138
H         7.37998403690803   -2.08036277423016   13.41476075087776

