83
CSD_code = TEYHEL | q = 0 | S = 0 | Stoichiometry = C32H46N2O2Pt | MND = 4
Pt       -0.00008127604582    0.27368856749963    7.63564959918679
O         1.06095622293261    1.69515479377406    6.70627782108643
N         0.92790016882600   -1.14941932177562    6.71233171972957
C         2.08475054410822    1.50533056554945    5.94881224637380
C         2.83844720493837    2.64819271480908    5.51360860070269
C         3.89237140221136    2.46749726982001    4.65744479458768
C         4.30533733828353    1.21189792835750    4.17072095646848
C         3.61661699188667    0.11575991813173    4.60739306916130
C         2.52044211570231    0.21933578048580    5.49359656952810
C         1.90373800347030   -1.00135627411605    5.87378102661705
C         0.33633257297733   -2.45562453635011    6.94567941412322
C         2.45100270835132    4.03004978333999    6.03013502713032
C         2.54274081681772    4.03736851388934    7.56290745106567
C         1.01772856462701    4.36066025658917    5.59228815361264
C         3.37015871442620    5.13806282288397    5.50322746637966
C         5.48031654368807    1.14440402813507    3.20779469080943
C         5.79570211728625   -0.28833676428223    2.76914464194105
C         6.72865495963832    1.72022029577689    3.89077433279422
C         5.14879022549711    1.96451747325059    1.95314059991272
H         4.44731757122448    3.33009974463196    4.33132271798041
H         3.89187786762926   -0.87704881274733    4.28736611958459
H         2.30995968827583   -1.90106970395192    5.40575134351287
H         2.28790376502671    5.02286499911189    7.94660004209805
H         1.85531379582109    3.31405561596514    7.98975542498492
H         3.55436812722066    3.79093829916204    7.88093732805853
H         0.74413324801008    5.35505919863234    5.93843209794359
H         0.93978019841408    4.33616920392974    4.50682475035742
H         0.31882805812167    3.64471818074386    6.01093882933582
H         4.40248734669335    4.97426826147642    5.80540888076557
H         3.31922431761250    5.21424241193654    4.41910164553672
H         3.04933662232941    6.09135633469125    5.91858874155792
H         4.94510061257259   -0.73643453769514    2.26076294635859
H         6.63554167839878   -0.28051500895707    2.07709171804387
H         6.06858108264003   -0.90633778041968    3.62140824493687
H         6.95475112982290    1.15798602303368    4.79440398640121
H         7.58485245941323    1.65934861994461    3.22190070607773
H         6.58587456496209    2.76148335832894    4.16532593529419
H         4.97569609402796    3.00894268653738    2.19636469629710
H         5.97066566751791    1.91263952794669    1.24182069980417
H         4.25266933868513    1.57357018223554    1.47575144857097
H         1.08885227168184   -3.25072184984127    6.87952583181671
H        -0.42299890299570   -2.63722105149296    6.17368060404386
O        -1.06093135619966    1.69514206557319    8.56525407344665
N        -0.92787536601638   -1.14941569460383    8.55917325281871
C        -2.08467900347008    1.50532202357414    9.32278604106631
C        -2.83848476130751    2.64816009049517    9.75787178608970
C        -3.89241547142298    2.46746034644278   10.61403294740818
C        -4.30535173589886    1.21186367973825   11.10077484921318
C        -3.61661275588191    0.11573284391936   10.66410478558040
C        -2.52041008884404    0.21932142692665    9.77792955413979
C        -1.90371192950849   -1.00135998185409    9.39772267315997
C        -0.33631772872058   -2.45562623380846    8.32585048869655
C        -2.45101090552044    4.03002825433710    9.24138205952523
C        -2.54273068238400    4.03738367433812    7.70860504323209
C        -1.01772344233034    4.36066288110566    9.67920591405077
C        -3.37015023418493    5.13807460862474    9.76826777164348
C        -5.48032209566466    1.14438688462372   12.06370846266127
C        -5.79569067023466   -0.28835517181062   12.50235278084532
C        -6.72864309791720    1.72023533458894   11.38071210586477
C        -5.14882353492514    1.96453044930995   13.31834974092774
H        -4.44731846479536    3.33006564774536   10.94020462530647
H        -3.89188667280534   -0.87707628069820   10.98411472105988
H        -2.30994286299704   -1.90107444211627    9.86574135664422
H        -2.28789398801756    5.02288464200558    7.32491949450552
H        -1.85531403624300    3.31407695738109    7.28173131749982
H        -3.55435475492789    3.79095799985994    7.39056661408813
H        -0.74410888961272    5.35506593993007    9.33308339336894
H        -0.93976883529170    4.33616551975368   10.76466424499188
H        -0.31880681390809    3.64473521439705    9.26056890164840
H        -4.40248458308323    4.97431329941003    9.46608958007246
H        -3.31921716740051    5.21426589536880   10.85239153431318
H        -3.04930965585040    6.09136141540639    9.35291006826392
H        -4.94509668711321   -0.73645233352360   13.01074537400460
H        -6.63553854321123   -0.28050508636066   13.19439414641468
H        -6.06857177848215   -0.90635111280129   11.65008441718992
H        -6.95474214114169    1.15798972402147   10.47709225056391
H        -7.58485009285685    1.65936235287498   12.04956797920858
H        -6.58587806657198    2.76149839245272   11.10614654683969
H        -4.97572700634716    3.00896260127616   13.07512348458923
H        -5.97069831591893    1.91264346631788   14.02967482383512
H        -4.25269729392600    1.57357532775869   13.79572853687069
H        -1.08884041689636   -3.25071668941376    8.39203964764991
H         0.42300938525263   -2.63719365163780    9.09785969011120

