83
CSD_code = TEYHAH | q = 0 | S = 0 | Stoichiometry = C32H46N2O2Pd | MND = 4
Pd       13.33803596735844   -0.26318098774295    7.70326952396436
O        12.31530602361397   -1.66865504544627    6.71239817544393
N        14.21688365919236    1.16337781291701    8.68058321372708
C        11.28629638857116   -1.47458480423636    5.96812829971819
C        10.48603889417340   -2.60642239584637    5.58745179345097
C         9.44822129399947   -2.42668949524067    4.71275113034881
C         9.09220558120264   -1.18014123699586    4.16032744207569
C         9.80929831385396   -0.08858309857075    4.56264368404746
C        10.88754012480292   -0.19070182665009    5.47012109882543
C        15.15347312504431    1.02393033469779    9.56169491904496
C        13.61728271259385    2.45988116535412    8.41950438774171
C        10.81123497295792   -3.96793981993155    6.19243786152861
C        10.72199657824492   -3.86767296981577    7.72293303734188
C        12.22743020133831   -4.39370887978773    5.78178699596061
C         9.83891666118210   -5.06255810588569    5.73855429875540
C         7.93366375465071   -1.11583173679988    3.17761735120371
C         7.69037471462383    0.30134019466428    2.65142473635514
C         6.65258559232925   -1.59366044113019    3.87561557966535
C         8.24213470637309   -2.02244845331322    1.97776876430245
H         8.86087487440568   -3.28121627068193    4.42359558497088
H         9.56745092736764    0.89887598178663    4.20138622578452
H        15.52125314040020    1.92430860486371   10.06343967624291
H        12.79032490039016    2.61429431943841    9.12743083468932
H        14.34367614568845    3.27257433711070    8.55455166172830
H        10.93688861160825   -4.83487095545622    8.17234130019679
H        11.43963792480236   -3.14471836426188    8.10376089217693
H         9.72133863108182   -3.55972271083359    8.02202976389023
H        12.45407225657471   -5.37444875303912    6.19465177913584
H        12.30616131566617   -4.44581550747793    4.69738893575574
H        12.95877907249987   -3.68354152964648    6.15400131330195
H         8.81555834985721   -4.82510707855181    6.02172372209789
H         9.88860299688867   -5.21482746665170    4.66241007833471
H        10.10897939675503   -6.00038894993920    6.21997869664858
H         8.56828332323037    0.67953868300879    2.13256836320806
H         6.86064054598607    0.29055038324166    1.94716011880854
H         7.43405267306622    0.98033185430797    3.46150873292290
H         6.43848744309920   -0.96435390166047    4.73732248172977
H         5.80899889277087   -1.54123722787498    3.19022501041130
H         6.74777384488754   -2.61986950176375    4.21957372375662
H         8.35670121413268   -3.05891863420151    2.28211194671014
H         7.43565435959251   -1.96950567964181    1.24911534266689
H         9.16507235794891   -1.70548555473744    1.49646855981616
O        14.36048196093756   -1.66851914179460    8.69464772021313
N        12.45853619827895    1.16346035842735    6.72671716869565
C        15.38951295433502   -1.47438844451357    9.43884053328513
C        16.18836242951015   -2.60652850372066    9.82162950022133
C        17.22521398016965   -2.42682486083702   10.69750732638309
C        17.58109833896001   -1.18018311084500   11.24981317943583
C        16.86453542411645   -0.08859581114907   10.84664696002097
C        15.78726129781651   -0.19067796890173    9.93801799662020
C        11.52104052846098    1.02404430858744    5.84657706494292
C        13.05888922123947    2.45977239855013    6.98689430755741
C        15.86393109469355   -3.96799789866655    9.21613802629144
C        15.95450729969810   -3.86773507532600    7.68569889889936
C        14.44736936202149   -4.39368907349546    9.62553964071135
C        16.83604798301843   -5.06251568322103    9.67069055760669
C        18.73834158524274   -1.11594216052691   12.23406285427411
C        18.98112594537246    0.30125792669811   12.76039089749030
C        20.02023441064901   -1.59410330916039   11.53782614608855
C        18.42819119225690   -2.02238820485801   13.43364804481280
H        17.81286585834244   -3.28118362958426   10.98649799398199
H        17.10594991585383    0.89882834592878   11.20827319298449
H        11.15417508654422    1.92418440470752    5.34374961466097
H        13.88586640922883    2.61350039450024    6.27882822884118
H        12.33282626887413    3.27271952146630    6.85158109923847
H        15.74014721936650   -4.83494129423758    7.23604641661138
H        15.23706258848098   -3.14490306459008    7.30427966048753
H        16.95533884262662   -3.55959330798555    7.38738207350884
H        14.22118628072790   -5.37441550448883    9.21241694701175
H        14.36778469973505   -4.44588585844171   10.70987115452564
H        13.71628169685326   -3.68354902476809    9.25275330616137
H        17.85966125157334   -4.82495607646286    9.38850041616039
H        16.78537015482892   -5.21493431242577   10.74675604893183
H        16.56649492127054   -6.00031063186741    9.18891751938644
H        18.10262140562044    0.67962220235045   13.27815188099490
H        19.80997728017090    0.29038330806303   13.46569499194385
H        19.23858361824069    0.98014858374203   11.95056607718445
H        20.23551691629712   -0.96493294069016   10.67630836599060
H        20.86293492549704   -1.54167457896718   12.22431329733184
H        19.92535029885217   -2.62034901960526   11.19387874217021
H        18.31373825755204   -3.05882399124039   13.12929572228490
H        19.23368644868691   -1.96963827252919   14.16338917542980
H        17.50471598321636   -1.70523728569894   13.91370421209447

