97
CSD_code = TEYKAJ | q = 0 | S = 0 | Stoichiometry = C52H39NO2P2Pt | MND = 4
Pt        0.06837813863337    0.31629224830625   24.11801599596026
P        -1.23033946638441    1.66333764544785   25.40275091492558
P         1.35148412528842   -1.07916603411305   22.87243999167069
O         1.68292686198702    6.91729596559548   17.56252827575958
O         1.85145549462027    8.22715836778493   19.26144703066816
N         1.65952454566706    7.13086585089015   18.76294720249236
C         0.44381263192974    1.87454217098920   22.92970467372015
C         0.63641681272627    2.81776777171849   22.18730693209196
C        -0.30310242625639   -1.24504714900637   25.30405224866147
C        -0.48178989601012   -2.18501265921187   26.04834651953369
C         0.88332785209867    3.90182325042559   21.32848828341791
C         1.11820162918711    5.18262113209725   21.85255473387908
C         1.36982127082507    6.24077574201833   21.01355193420828
C         1.39307401932532    6.03608759256053   19.63328371282914
C         1.15772306923571    4.76933343766120   19.09712720672669
C         0.90288545172346    3.71329732785135   19.93776474664282
C        -0.72322569621930   -3.27272235241691   26.91989936560100
C        -0.64744421604005   -3.09816579930850   28.30324321598090
C        -0.89730639508900   -4.15860518803791   29.15159295660281
C        -1.22281515120482   -5.40389522483896   28.63727026463854
C        -1.29408729336070   -5.58529041175277   27.26487471093896
C        -1.04651979810987   -4.53094402432124   26.40821207559166
C        -2.88236543295908    1.73734398098350   24.66350246494558
C        -3.97869744121035    2.28185570949578   25.32561443214388
C        -5.21368705624773    2.30189197871355   24.70384850606611
C        -5.36188447371101    1.77306455748797   23.43063902023349
C        -4.27573960311376    1.21477323259888   22.77609098006384
C        -3.03783566682226    1.19589558091803   23.39188368387389
C        -0.63148908759389    3.37563419310136   25.50162056151990
C         0.73476377767771    3.51555862897617   25.73630430547464
C         1.30468379731305    4.77108055454162   25.80845506005998
C         0.51274924197687    5.89619878556798   25.63031331112894
C        -0.84228164722861    5.75969523753346   25.37915312959229
C        -1.41921002837071    4.50215127716387   25.31487888360299
C        -1.59904410469621    1.22980399814316   27.12988634325310
C        -2.41321816951717    0.12083126595105   27.35022097869179
C        -2.67709252394275   -0.29944446103415   28.63898803509353
C        -2.12679451099315    0.37916516808925   29.71566525951748
C        -1.31393850879620    1.47922904945021   29.49992561515984
C        -1.04457411562480    1.90475711849988   28.21047769623332
C         1.76746370226299   -0.65977145090269   21.15111988267952
C         1.23831062451587   -1.33343325483830   20.05732182846920
C         1.55184135338949   -0.91734960202127   18.77450362232857
C         2.38468558003737    0.17121739919937   18.57787287626352
C         2.90931388985754    0.84950770197659   19.66787060433692
C         2.59991209165601    0.43925030833314   20.94959135249873
C         0.70135690775414   -2.77052645659759   22.76113929581378
C        -0.66150788365243   -2.86736536924068   22.48880251513209
C        -1.26730139825148   -4.10443121487157   22.39653989409672
C        -0.51500544807407   -5.25355265566258   22.59140135575724
C         0.83577792066370   -5.15952340773444   22.88117144706601
C         1.44910380805400   -3.92061660012591   22.96613029488263
C         2.98894202073147   -1.19782771721717   23.63741231132038
C         4.07760833463566   -1.77806512815366   22.99310308563433
C         5.30351436820428   -1.82888225387400   23.63087431360288
C         5.45042997013289   -1.29597437347418   24.90249085442288
C         4.37253031837253   -0.70180909995938   25.53880726195040
C         3.14373846320357   -0.65095417418098   24.90674420685766
H         1.09613333957202    5.32231127382114   22.92359471277296
H         1.55217161867534    7.23332564218374   21.39710305442740
H         1.18074994799391    4.64359587359858   18.02513693726544
H         0.71899815938497    2.72574476409700   19.54008149095378
H        -0.39366838042534   -2.12407738462717   28.69875138985277
H        -0.83893742305380   -4.01549056013953   30.22183858366699
H        -1.41937690413738   -6.23126235645103   29.30386793727163
H        -1.54493050275551   -6.55708977006372   26.86241822902605
H        -1.09992584780858   -4.66649046522705   25.33662084722831
H        -3.86209885093946    2.67504271075965   26.32697260644717
H        -6.06564408274484    2.72743941143166   25.21376513249056
H        -6.32957194281390    1.79064346958564   22.95148905982941
H        -4.39699077799771    0.79449904618845   21.78857735649762
H        -2.16991478284395    0.76020463328824   22.89580343303304
H         1.34235509974317    2.62189379495454   25.84432717800286
H         2.36425421203688    4.87738018576663   25.99001314673080
H         0.95609822669403    6.88010933112994   25.67515669429012
H        -1.45310093708021    6.63728577444573   25.22606951405155
H        -2.47440857944804    4.40030816204455   25.10622653088168
H        -2.82896286707202   -0.40969297712572   26.50462463895040
H        -3.30447585226934   -1.16250224444788   28.80544574647854
H        -2.32897063717702    0.04716439295737   30.72333385765637
H        -0.88419711002974    2.00740526197033   30.33873583699710
H        -0.40715350780876    2.76249312552134   28.04441839800454
H         0.58675513841533   -2.18334674171118   20.20784103007763
H         1.14208706209408   -1.44480119063885   17.92537747265316
H         2.62312748280068    0.49457149672572   17.57547017520261
H         3.55415581260575    1.70247173475191   19.51601825678932
H         2.99596378583625    0.96815678498946   21.80614941985867
H        -1.23814593714297   -1.95495941180703   22.36889527196266
H        -2.32454946540702   -4.17763647791225   22.18692830432094
H        -0.98685172538223   -6.22335695157963   22.53008442434467
H         1.41480097687565   -6.05593241473713   23.04879811772141
H         2.50037109267072   -3.85138590854533   23.20587416494736
H         3.96307968583806   -2.17486404941855   21.99291566906577
H         6.14956783590213   -2.28164170006304   23.13464600800240
H         6.41088527104781   -1.33854928091879   25.39451756724066
H         4.49269944459909   -0.27868857961127   26.52519382073470
H         2.28246128738643   -0.18830657230120   25.38904972189360

