92
CSD_code = TEYMEP | q = 0 | S = 0 | Stoichiometry = C39H35F10N7Pd | MND = 4
Pd        5.34279181722547    2.67458352299884   12.28792258935347
N         4.50709520325976    4.55458573317457   11.55405621163450
C         4.48102332519005    4.94805032880838   10.28671301031340
C         3.47172975866002    5.72384208507664    9.74446688410414
C         2.40005176539180    6.11662486028590   10.54094923103507
C         2.42501511589449    5.68258406360415   11.86292147180572
C         3.47861110501931    4.91652606942466   12.34821038856204
C         1.25035640584054    6.96803694310406   10.04030678384905
C         1.41946821404080    7.36550295550553    8.57225759213444
C         1.17971002782327    8.24847430173720   10.88521645562740
C        -0.05461819394664    6.17215850071547   10.18385605462198
C         3.55059982104863    4.45368314043490   13.74238725685929
N         4.47529494635633    3.51813191359203   13.98978468948366
C         4.62955388076943    3.07389820073810   15.23837065281481
C         3.80538959067234    3.48669053732892   16.27553921699027
C         2.80527059389939    4.42573491249719   16.04204568055292
C         2.72275113199404    4.93880210781621   14.75274719594275
C         1.87547139039889    4.83504656418695   17.16545198159295
C         2.70580798342891    5.48216724809071   18.28273116427140
C         0.80621030300015    5.83072048327203   16.70973488399903
C         1.17583912864521    3.57497175233282   17.69476591729980
C         5.71129650774579    2.10919945251485   15.49431656785805
N         5.50324128238762    1.22478086600112   16.46803324036489
C         6.45609702018609    0.34433564097007   16.70442891899559
C         7.64860694054206    0.28759620201667   15.99750625993111
C         7.90045629706856    1.22861069197932   15.00395703846551
C         6.89529760219077    2.16681282863111   14.75989610337191
C         9.18641219733785    1.28046841043522   14.20314771306371
C         9.85116152335715    2.64876078091492   14.41521856455124
C         8.83271366603755    1.10077680955909   12.72214672077124
C        10.17195896232139    0.18361996891792   14.60952061014215
N         6.30170616402593    1.89116493399580   10.67973323975257
N         6.29910067314577    0.54787063383646   10.63145233610589
N         5.77573595786160   -0.06313965232438   11.55569858840645
N         5.18635244607082    0.62960884238308   12.52591155499168
C         7.08622097712494    2.56613332664830    9.81336883537116
C         7.59729846682065    3.82752537748781   10.19398440613187
C         8.38932983631779    4.60532479753044    9.37402113598276
C         8.73858322116728    4.13368483969917    8.11157223142227
C         8.28994546471259    2.87461782278423    7.71135061247807
C         7.48642086252904    2.10667878882699    8.53595201774144
F         7.31630729517634    4.25686176131961   11.46385736488631
F         8.82939667095503    5.79837753285942    9.79691594672650
F         9.50045688015635    4.87651272841152    7.29475196682116
F         8.63022823992048    2.41502556834439    6.50167964007601
F         7.06316333630019    0.91674583918074    8.09189895556496
C         4.53745846229267    0.00619011565749   13.53824411029240
C         3.33178320882992    0.57605541799371   13.99178306703102
C         2.65609070559048    0.11850787865056   15.10293592419026
C         3.13970613744935   -0.99906560811340   15.77849606056512
C         4.29068656174924   -1.63446362643102   15.31567133894790
C         4.97899644161097   -1.14502014155227   14.21834832160798
F         2.84714324310613    1.62086808992107   13.26942882268558
F         1.53828617823416    0.73057930536262   15.51882418717837
F         2.50355622967687   -1.46062652305026   16.86295189502400
F         4.75492142698395   -2.70666836684486   15.96908617383764
F         6.11802962134938   -1.74117505380884   13.83872356687761
H         5.31658656078261    4.64864007438816    9.66522813887203
H         3.54097464741492    6.00645845699634    8.70842595639652
H         1.60794566414488    5.92681019303913   12.52042979801155
H         0.57635308244332    7.97999120264028    8.26548152795669
H         2.32735736528365    7.94595631481630    8.42494567827071
H         1.44529106461553    6.48937324684591    7.92872772142874
H         0.37990639653268    8.88789768055667   10.52004258721783
H         0.98517006502138    8.02824329462628   11.93133222497130
H         2.11650467044219    8.79791339457959   10.81883364211738
H        -0.88882750254718    6.76081755212342    9.81018160646068
H         0.00022912331787    5.24967681924114    9.61006441612862
H        -0.25657655857471    5.91738079817025   11.22065088836749
H         3.96601064645112    3.04255156581847   17.24335069607428
H         2.00645618923552    5.70622752385615   14.52049755390266
H         2.05473523820094    5.77765830832795   19.10172314529694
H         3.45084482756370    4.79359564425356   18.67095210914852
H         3.21725096224476    6.36854112629758   17.91225415639200
H         0.15743934045983    6.07027491834734   17.54882666462448
H         1.25284313097991    6.75925864331526   16.35988815166424
H         0.18875392559458    5.40588699423825   15.92145170578831
H         0.46731824531061    3.84540189819872   18.47375758392482
H         0.63605359871489    3.07453839921313   16.89425989236003
H         1.88799216139403    2.87024292304269   18.11315349410389
H         6.25046439968544   -0.35828379484522   17.50106210997080
H         8.36283723788026   -0.47922533073056   16.24178133658874
H         7.05233150739305    2.99498668750311   14.06263943598791
H        10.80748728337397    2.67580016716861   13.89865295910511
H         9.23675411502995    3.45667024668163   14.02637807703702
H        10.02803411252207    2.82699320585522   15.47415809494622
H         9.72587584186217    1.18391411188491   12.10755287914385
H         8.38888370987024    0.12137196496245   12.55414278838089
H         8.12179324009989    1.86560696198173   12.40277703722450
H        11.06497302165174    0.25523437022703   13.99300705889652
H        10.47187022168164    0.28999421653091   15.64983752453387
H         9.73971244114157   -0.80235228555502   14.45790200742259

