84
CSD_code = TEYPEV | q = 0 | S = 0 | Stoichiometry = C42H36N2OP2Pt | MND = 4
C         1.21394479951348    7.44201514311515   16.38217950360564
C         1.53292198298961    8.79557314697027   16.49485953140502
H         2.54837256508248    9.13119017162203   16.34777054105013
C         0.54264297081718    9.71633628589283   16.79705405541387
H         0.76647401623964   10.76820666647296   16.89168984363442
C        -0.74951162990014    9.29083777383866   16.97837846515550
H        -1.56742321642744    9.95451566181027   17.21384977739328
C        -0.13159280707086    7.06692851001352   16.58551716578684
C        -0.44544302388689    5.63883673807179   16.51746942774554
C        -1.73277571666714    5.09366592847864   16.52626193040593
H        -2.58264083354867    5.75475818002289   16.56097242560539
C        -1.89763094191810    3.72252109951167   16.50368878303554
H        -2.88962403726747    3.29627756927138   16.50491923524063
C        -0.77573351925244    2.90803679545002   16.49203815516548
H        -0.85378922704677    1.83250771546458   16.49881613511404
C         0.46554671598061    3.51541536698906   16.46237916574486
H         1.36407528747920    2.90884012472069   16.45379486010536
C         3.95499325972814    7.09884135480694   15.45950058584521
C         4.02871451654456    7.84241575305618   14.28149226928349
H         3.22201766528049    7.79032015330415   13.55907254617160
C         5.10377178834478    8.67636252699009   14.02591098718784
H         5.13857649829923    9.24116146979534   13.10394069910570
C         6.14268659184498    8.80379317295797   14.93919971945447
C         6.08038867355712    8.06402338392047   16.11203882135631
H         6.88108112140622    8.14410743594630   16.83669119992368
C         5.00991930385566    7.22021959314704   16.36239755869942
H         4.99707442539648    6.64765101040208   17.28712494097329
C         7.29540889257939    9.72070012688428   14.65361538282747
H         7.67589277206144    9.55156558142352   13.64702541513929
H         8.10280935040828    9.56595510046976   15.36600384224782
H         6.97663117254509   10.76130855124020   14.71970402994472
C         4.12006071450240    3.01469490905645   16.72204208326031
C         3.67199333586843    3.48953027275458   17.95327980069655
H         3.08861078127242    4.41119899578848   17.97495836943446
C         3.97321004284640    2.81437510911669   19.12060581745118
H         3.62170490497034    3.18863214936734   20.07072861198161
C         4.73252996034069    1.65649004814938   19.06629941480747
H         4.96902145084180    1.12148171881908   19.97409888056960
C         5.20129391555118    1.19029465226058   17.84855897623272
H         5.80636693580622    0.29586965083313   17.81120256213201
C         4.90472632018504    1.86767152868265   16.67898426261455
H         5.29542589198924    1.50233066565478   15.73961518766760
C         2.65965297859821    3.06077068853008   14.14946316007564
C         2.79768358162749    1.70394657956616   13.89389558240326
H         3.55626546087920    1.12475931170621   14.39918591837576
C         1.94815953236677    1.08483677791772   12.99386011348197
H         2.05910216834252    0.02929386729800   12.79238188001282
C         0.95569208288217    1.80957350211650   12.35586562322404
H         0.29177833181422    1.31610881184004   11.66159429272688
C         0.81160755584958    3.16422821416174   12.60955486193219
H         0.03588945169236    3.72925628357565   12.11370789648251
C         1.66335579511159    3.78685098046876   13.50061604870075
H         1.57171265819277    4.85391121919141   13.71428817923072
C         5.23988763413662    4.19151689154461   14.38095307233189
H         5.68845201511263    3.21430636352004   14.19051184224432
H         5.90984550112046    4.80389962310068   14.98860787140162
C         6.45968249416449    5.66100722066663   12.28085732858900
C         6.78733411504768    5.63208712309502   10.92720386442034
H         6.09038471346201    5.20684783103810   10.21793480338484
C         7.99663917498425    6.13481017092570   10.48575297575633
H         8.24137412300620    6.09725169371580    9.43395729860711
C         8.89061408401277    6.68873000823529   11.38710391064558
H         9.83626261912982    7.08059886862681   11.04220541339624
C         8.56002751935828    6.74794833219291   12.73016394798643
H         9.24602586761833    7.19117510188250   13.43743279671443
C         7.34955912865701    6.24768906509324   13.17429924347326
H         7.09552597522833    6.33212636664764   14.21995206817485
C         4.64105213569939    3.64675194011811   11.69226106515548
C         3.53240420154939    3.58982503938391   10.85711119012422
H         2.81367191785504    4.39665343554383   10.88330940199186
C         3.34732544888732    2.51744563235933   10.00303230877672
H         2.47879959996267    2.48183175309080    9.36173693337785
C         4.27635966335675    1.49267148277037    9.97144773576648
H         4.13351400324781    0.65042562754788    9.31043385019945
C         5.40087247624001    1.55618215826645   10.77890033396989
H         6.13896987492561    0.76762990344081   10.73876057778048
C         5.58692252440695    2.62879327399516   11.63005056478783
H         6.48433724990389    2.68328293381832   12.23207029018102
N         0.63407202668491    4.82938027846454   16.45446336804038
N        -1.09877909668562    7.99164573563545   16.87924282251669
O        -2.31247251613990    7.68472877444624   17.07231125427958
P         3.65452347898193    4.05924243107685   15.30331367032739
P         4.79649773633657    5.10244909578584   12.81097379376864
Pt        2.41639104123011    5.89217181490600   15.91619987856346

