22
CSD_code = TEYSOF | q = 0 | S = 0 | Stoichiometry = C8H10Cl2OTi | MND = 8
Ti        4.02539306241371    3.84590028148738    9.76042676891304
Cl        5.97048472779977    3.84984699698920   10.70945771473109
Cl        4.66783059228576    3.39083791630248    7.73657872004459
O         3.41504269482835    2.35623969871986   10.24763329812011
C         2.58976597254027    5.03022601238697   11.10512124225203
C         3.64375356872846    5.91484521192545   10.76901185873157
C         3.62965623666406    6.10278417984444    9.37258015972349
C         2.55065851357885    5.35249843866004    8.84208942236786
C         1.90339122086500    4.68848216482038    9.91234599876581
C         0.74601922924994    3.73992913245030    9.78141092430129
C         1.21235134478340    2.36152806372483    9.27937910642227
C         2.20142627393821    1.69843011414462   10.25451744183930
H         2.28469092085319    4.76342591476779   12.11062275790540
H         4.28326438054095    6.43155480097081   11.47415570171716
H         4.24495957670641    6.80326054307526    8.81866876304117
H         2.21250816898140    5.37262245637774    7.81221021878074
H         0.01949188812601    4.14366333017100    9.07059934050550
H         0.25053992597814    3.62333793232971   10.74973508301273
H         0.34899305568290    1.70585417319953    9.14986287829447
H         1.72340505752011    2.47698736397471    8.31342904535103
H         1.78937249937005    1.71155804000018   11.28004811437695
H         2.36270108856610    0.64838723367746    9.95971544080299

