48
CSD_code = TEYTOH | q = 0 | S = 0 | Stoichiometry = C16H25NORuS4 | MND = 9
Ru        0.62742110706862    3.41873902174114    5.41803276226130
S         1.58158817467160    5.27661013534806    6.67923724107864
S        -0.54321032494408    5.47610479873266    4.82438121691900
S         0.84033081678486    3.17310189191518    3.03129593626603
S         2.92111897760214    2.93689313462222    4.87167704330592
N         0.50147829393935    7.63658610906898    6.01617364471152
O         3.14196209171402    2.02206815524216    2.39259845902364
C         0.22929321802339    2.35684851577291    7.38154046306335
C        -0.96914885774556    2.94180203944565    6.84397843329144
C        -1.25730409789145    2.28433183240890    5.59818395309018
C        -0.22854027038530    1.31752658568147    5.36752230358861
C         0.68201418253615    1.36018386032605    6.47314909093224
C         0.50564974686838    6.31639021015166    5.86813734898589
C         1.43455329615472    8.26249146102240    6.93125816545692
H         1.59021983418524    9.29213436606569    6.60438107351216
H         2.38384009717031    7.72244559701821    6.86370592375066
C         0.94753600464694    8.23339523366981    8.37711082831223
H         0.02348093143623    8.79335120931743    8.49118442719458
H         1.70239164724380    8.67282402187460    9.02256403997349
H         0.78073073363722    7.20666411671500    8.69041558582951
C         2.47479057435676    2.57171539546461    3.21631377539337
C        -0.45899532359545    8.44105889481523    5.28836180849159
H        -0.59019361729358    7.99247953135946    4.29906181090867
H        -0.04152290367107    9.44256522024202    5.16923996277628
C        -1.81327383159023    8.51068094766990    5.98811342697493
H        -2.20909716166698    7.50862797086034    6.12760661006741
H        -2.50932772253203    9.07575088173827    5.37512020006901
H        -1.72982566923221    8.99643885456622    6.95644919188098
C         0.81320714985911    2.61833644922323    8.73215382869899
H         0.43575999807515    3.54779164481232    9.15106233832772
H         1.89908742214625    2.68297752249628    8.67807294659520
H         0.55227308696417    1.80049710607606    9.40605554355541
C        -1.87070310451812    3.88476980044071    7.57880285277413
H        -2.47683173924359    3.32846706141087    8.29606298240911
H        -2.53630836233772    4.40279751574578    6.89135940298729
H        -1.29326099322741    4.63050391687034    8.12517529185153
C        -2.47906274841638    2.44393880967391    4.75319845609254
H        -2.20548189046246    2.49189488400986    3.69922807234864
H        -3.01834871246725    3.35342674484126    5.00625430904892
H        -3.14254736733005    1.58975702889658    4.89669947853238
C        -0.21043043786612    0.30256215274195    4.27395588447906
H        -0.73528109325515   -0.59609645497569    4.60417246263209
H         0.80990258512450    0.02493489919145    4.01319516388585
H        -0.70193998737141    0.68317811666287    3.38097842549447
C         1.80843904840434    0.40960442806524    6.70160729935097
H         2.52294291381716    0.81564679566622    7.41327468306435
H         2.33551146089286    0.19641300295306    5.77299305394176
H         1.41551282370228   -0.53001141748348    7.09460279691844

