40
CSD_code = TEYVID | q = 0 | S = 0 | Stoichiometry = C14H21NORuS2 | MND = 8
Ru        3.80126700363536    9.77258400478095   10.27539561442078
S         3.92107880774596   10.70140751261732    8.00702271377675
S         5.92164858048020    9.06509073457743    9.26189713410900
N         6.13724987918415    9.91247364695486    6.73502964655150
O         4.94394343132183   12.19387951545042   11.60243121796145
C         4.52947646703375   11.26737962873793   11.05565736574984
C         5.41903623848229    9.89544458505915    7.85721856225833
C         5.70948791122889   10.62483926244355    5.55738896896413
H         4.73536381787329   11.07325516290390    5.73511263866208
H         5.64315756654967    9.93637539061984    4.71227413822796
H         6.42799391284003   11.41106400721199    5.31580991727118
C         7.41231758411298    9.24928634276949    6.62665407558688
H         8.18335045698645    9.97291550569159    6.35444024158416
H         7.36675324391578    8.47629108666224    5.85612120473247
H         7.66900633248308    8.79266185923711    7.57922840487003
C         3.01225483546686    7.66282732327773   10.31578199737955
C         3.28122664546427    8.13480508276055   11.65733088223333
C         2.39461286859024    9.22957285228946   11.91729929762784
C         1.65649910535792    9.49491674526344   10.71634834581738
C         2.02318571935195    8.48531854389770    9.74752724643354
C         3.57074344839017    6.39403417696363    9.74465209592792
H         3.06521911668802    5.53720095245808   10.19556746604007
H         4.63693891504902    6.30576362883611    9.95120298954744
H         3.42849185498879    6.34739386451945    8.66655554595124
C         4.08667541568813    7.39064402496669   12.67884289689718
H         4.41889765965407    8.05565509454402   13.47333442063321
H         4.96412550546245    6.93289744440912   12.22585301609874
H         3.47936281088109    6.59868580863970   13.12376025864482
C         2.15335098517728    9.86683585764039   13.25285541525356
H         1.37482033462012    9.31315821927705   13.78219329923164
H         1.82573379360580   10.89824613898857   13.14211965927433
H         3.05515337595392    9.85726196873003   13.86114980087244
C         0.47203527494137   10.40553981718639   10.59554289108265
H         0.35414839868937   10.75857884694642    9.57288964093681
H         0.57768041171165   11.27081773341356   11.24661731398008
H        -0.43719331716488    9.87003031263667   10.87933576299987
C         1.31784135511783    8.28092096648388    8.44092778014209
H         1.88947957809959    7.63498761855498    7.77724449803529
H         1.15112520652512    9.22963361730481    7.93170875921208
H         0.34595946783126    7.81612511433501    8.62067687507727

