76
CSD_code = TEYVUO | q = 0 | S = 0 | Stoichiometry = C32H35ClO3P2RuS2 | MND = 6
Ru       -1.39385532490623    3.66963355635408    6.46480859181577
Cl       -1.87455854191418    1.36331238796804    6.20530246937174
P         0.86654425167131    3.14709468921700    6.41952978513698
P        -3.68056380050582    3.99031020156186    6.25176141011907
S        -1.28335828206372    4.17709601916572    4.01965416344084
S        -0.90163989352566    6.04516351631280    6.18466061080000
O        -6.63981069819864    2.33481681334818    3.94250188726683
O         1.70064600646522    0.39070667885325    3.53848348879905
O        -1.47960970586455    3.93075389830177    9.43481645954935
C        -4.33259141726867    6.11269663111456    4.51070582829128
C        -4.52304152640128    7.45519321540995    4.23038241945910
C        -4.47081333357084    8.39424604112945    5.24594244594334
C        -4.20956219148529    7.99399170384304    6.54771128201903
C        -4.01457524254838    6.65705208858080    6.83219477629162
C        -4.10219586460888    5.70205941429819    5.81920434054326
C        -5.82228734622598    4.35877715713992    8.06446311511761
C        -6.56260470196054    3.99535872321438    9.17507511727536
C        -6.18677841094414    2.90179608115187    9.93792278305085
C        -5.06832198110960    2.16333388933378    9.58722972815283
C        -4.31970771066149    2.52453852262463    8.48236558467386
C        -4.68945846295585    3.62871758923820    7.71927609726326
C        -4.50387041968200    2.94403929604414    4.98556231557699
C        -6.02049268911731    3.15123639350190    4.90450554024808
C        -6.40624720647469    2.71109123637445    2.60758327089432
C         1.87963517697085    5.14140774305450    7.99148231490353
C         2.59100061330753    6.28541785229147    8.29079356218406
C         3.33336944866452    6.91613412028927    7.30363451769760
C         3.35711667571976    6.39990581798757    6.02018315434495
C         2.64713570095156    5.25059229935010    5.71500841345542
C         1.91234892726829    4.60848941539434    6.70359303146525
C         0.64532507122182    1.27455399589298    8.48756873603638
C         1.15708817994806    0.42423494698560    9.45264075994637
C         2.52557322064843    0.32250061447907    9.63431230584625
C         3.38791510702158    1.07394235734390    8.85063659078740
C         2.88349230481667    1.92319802069195    7.88515267829326
C         1.50683830309527    2.02435119473369    7.69680816088366
C         1.58340046358707    2.42273763153894    4.88924455132448
C         1.01426259875420    1.03130937259190    4.58699751965391
C         1.34116850613175    0.83506125812965    2.25384604776097
C        -1.44486536443006    3.75767971813456    8.30102662076798
C        -0.96382964433275    5.72515498293120    4.54872363585211
H        -4.35043854439426    5.39153461292024    3.70533682236842
H        -4.70526023724813    7.76798876898553    3.21227278123645
H        -4.61908285625500    9.44012596271504    5.02177417642994
H        -4.14588158500465    8.72721742405189    7.33788915647465
H        -3.77878898079328    6.33554734478869    7.83958966205785
H        -6.12314981889988    5.21013176564835    7.46991307587685
H        -7.43845913111363    4.56777623801214    9.44377926156534
H        -6.76863049884241    2.62437872090037   10.80437983518885
H        -4.77818190283178    1.30602288844601   10.17592822553940
H        -3.44762086677921    1.94851361534955    8.19543939170192
H        -4.28392853964263    1.90500202918528    5.25660267035025
H        -4.01874593334549    3.14375496946754    4.02383091778464
H        -6.47916995386110    2.86620898873559    5.85545164713511
H        -6.25405031637894    4.21006005523220    4.70767592109489
H        -7.06532599171311    2.09553293377949    1.99853801865923
H        -6.64770268261935    3.76994523231118    2.44722024619932
H        -5.37024828516823    2.53038464830118    2.30020387649191
H         1.28363567773040    4.64661975867364    8.74942105193863
H         2.56307154350000    6.69124976285479    9.29110523109498
H         3.88691082365843    7.81420000434171    7.53414636790781
H         3.92790056399519    6.89510405828525    5.24785582862268
H         2.66753594891919    4.86539301521951    4.70557209635151
H        -0.42378386525439    1.35002290705360    8.33505940024323
H         0.48435299963631   -0.15952335096779   10.06296138692968
H         2.92365206189235   -0.34066237926219   10.38806442938912
H         4.45581157484977    0.99828582705546    8.99488422560585
H         3.55577393106984    2.52060565664306    7.28350418477456
H         2.66847825437218    2.34738618703983    5.02670889783341
H         1.37108048297190    3.10134695591369    4.05587832995622
H         1.13768039964708    0.38554370378740    5.46236802634318
H        -0.05697596456300    1.10312556625662    4.35539875848567
H         1.83428481882962    0.16791647145905    1.54917682082696
H         0.25565603815242    0.78316773486136    2.10764953304810
H         1.67259580219264    1.86281806086681    2.06286662281024
H        -0.79961576219177    6.52108677514611    3.83355700937126

