108
CSD_code = TEYVOI | q = 0 | S = 0 | Stoichiometry = C46H52ClO3P3RuS2 | MND = 6
Ru       16.71226250571215   11.72048670346571    4.22979152879100
Cl       15.86754909091049   11.60084932669301    2.00389382875058
S        17.16200819448899   12.14587790341398    6.56113088770810
S        15.02700078638689   13.34914578603034    5.09378490400044
P        18.54849694981035   10.31530699761683    4.06035363068191
P        17.75302036711123   13.68757187777332    3.55552168775629
P        15.01815512509325   10.17899664468854    4.74997997867559
O        19.00644248675313    7.02860200137202    6.45940257242998
O        16.48084632170702   16.92128402395100    1.40630073643497
O        11.09644785086965   10.21340616353176    3.77298371144199
C        20.21434667525001   11.10634921118210    6.17115866729498
C        21.34521925631730   11.67841699430898    6.72592046675455
C        22.34531181189906   12.18228842001586    5.91035373341398
C        22.20794356466932   12.10927261264094    4.53410692913079
C        21.08034369275875   11.53489500347426    3.97522090356110
C        20.07073073497018   11.02262826784840    4.78723698938967
C        20.46575619682548    8.88394889254199    2.57259080063830
C        20.92645782749886    8.22421322106878    1.44882776955836
C        20.14924936260411    8.16657379821894    0.30267463093784
C        18.91039097096969    8.78211248671255    0.28354239755275
C        18.44492245126898    9.44381734992920    1.40689774423543
C        19.21346714050000    9.49640681539127    2.56396856632318
C        18.27754320386058    8.86521682056580    5.17444776521949
C        19.42607532545195    7.90290959680993    5.43340901116413
C        19.96694635231900    6.05654018857941    6.77792494278050
C        20.35280531103458   14.47395567955064    2.66768803237475
C        21.40729255958217   14.37892960530953    1.77602122417573
C        21.36397109072234   13.47180144885000    0.72985980641655
C        20.25345535182908   12.65895021896222    0.56409952786440
C        19.19853056996539   12.74864391751054    1.45273230575536
C        19.24690661535209   13.64752867194828    2.51498686713034
C        17.36310627047242   15.85070252155552    5.33112070233922
C        17.68716062660538   16.58703732820676    6.45758149273533
C        18.82156204382515   16.28328625703663    7.19088923167786
C        19.63532633036742   15.23221449101500    6.79906755099953
C        19.31545125298330   14.49312547701030    5.67710747217535
C        18.18628646751310   14.80579115046678    4.92256535123444
C        16.69828318170465   14.71415500007141    2.44687481846374
C        17.38475670242180   15.99101136967069    1.94925309468696
C        15.90472479456342   16.52549246115073    0.18395691688243
C        15.30421228813080    9.42472316402521    7.41110120664563
C        15.04458824740783    9.48585498846485    8.76702479559341
C        14.03536768804675   10.30520608663345    9.24603335768632
C        13.28708846144883   11.06190538773003    8.36080039866069
C        13.54212034321589   11.00321041458630    7.00185648100842
C        14.54723024139691   10.17384766321897    6.51138971156624
C        15.57914109772025    8.11803727437518    3.05060630515634
C        15.62520753114749    6.81604273468045    2.59155895377933
C        15.15819496238266    5.78735660408263    3.39433789883954
C        14.63711240135190    6.06952635110070    4.64612568238126
C        14.58787334694036    7.37312452562384    5.10954428241968
C        15.07189081722052    8.40515804073036    4.31519098334022
C        13.43799522059135   10.57439046593957    3.87984687366365
C        12.29768496883995    9.61679896143169    4.20277515346614
C         9.97547871766813    9.39716221729517    3.97916722058340
C        15.85872347015271   13.17607697063854    6.52992727946279
H        19.43900439786528   10.73253275683028    6.82263699981520
H        21.44265235067756   11.73335031989018    7.80041786111160
H        23.22665515264076   12.63058604319353    6.34507986745315
H        22.97988026280339   12.50210252834829    3.88861983652807
H        20.98675422011897   11.47608975628886    2.90133421930873
H        21.09069238729599    8.93779594966292    3.45204053553230
H        21.89954249341294    7.75431757194187    1.46645789811609
H        20.51552134542131    7.64994556620340   -0.57255985797774
H        18.30305209616823    8.75365784431438   -0.60918390487056
H        17.48900190064892    9.94643918412739    1.37775998718268
H        17.43652024339387    8.30482947227834    4.75689200558389
H        17.95326177034001    9.28932282350516    6.13086267613720
H        19.66225501280364    7.32683908561586    4.52584451887139
H        20.33407168186957    8.44054213519573    5.75114214797915
H        19.54155833096221    5.44577154838910    7.57138751553737
H        20.19521404560298    5.42383588982324    5.91090089904917
H        20.89849237469035    6.51800674970063    7.12997793084768
H        20.39389295595931   15.19079360257084    3.47498937240346
H        22.26746514965798   15.02168014213891    1.89754353721831
H        22.19360482761181   13.40264635171732    0.04125595130211
H        20.21099893375709   11.95276740044562   -0.25244868434384
H        18.32266872092529   12.12431829716419    1.33424876518398
H        16.46469501594412   16.09031714950997    4.78090134260794
H        17.04383133743446   17.39817837628631    6.76670375633085
H        19.06592497428727   16.85861278079378    8.07185771806189
H        20.51499481274259   14.97965104909871    7.37306663635819
H        19.93292822193051   13.65850902600519    5.37841175963365
H        15.77154248090149   14.96581007205934    2.97427917466534
H        16.43407718774696   14.06436251124624    1.60588179691575
H        17.86724912788285   16.51771312804836    2.77812416704664
H        18.15543624002008   15.73217349740306    1.20670240201373
H        15.34361519383837   17.38424190064467   -0.17978148226939
H        16.67838873980581   16.25814149291611   -0.54615597592626
H        15.22443018415737   15.67680155916518    0.30635591021630
H        16.09657854154241    8.78705651781007    7.04438682831249
H        15.63732051425541    8.89703210015892    9.45184622353896
H        13.83660983036254   10.35776953119609   10.30642726585850
H        12.50280973367377   11.70806448529187    8.72837426000978
H        12.95729238893026   11.61195668806449    6.32724260741317
H        15.93785911089981    8.93456052305257    2.43878264045527
H        16.02622597836921    6.60428200750332    1.61128940403593
H        15.19577844513422    4.76624402162320    3.04403349612130
H        14.26334670886811    5.26906157754052    5.26816788237522
H        14.17165222334978    7.57975222571293    6.08479927529033
H        13.65451846480544   10.55008111041739    2.80722372989907
H        13.13605802624720   11.59806988106720    4.12276808924947
H        12.44668920810728    8.65341138495079    3.68970966646831
H        12.24531064886219    9.41160631464315    5.28588068487724
H         9.11416370343689    9.95076692932294    3.61133222338630
H        10.06513881970561    8.45097290026110    3.43008158634558
H         9.83825186287731    9.17048963207612    5.04487646027825
H        15.55595840055404   13.72087404992947    7.41321462865971

