56
CSD_code = TEYXEA | q = 0 | S = 0 | Stoichiometry = C22H30Cl2SiZr | MND = 12
Zr       -0.36495599407742    3.12175789221503    6.14621094784603
Cl        0.92256119059064    3.47435998447507    4.22200599422540
Cl       -0.09237576736917    0.80690277490065    6.35195007304147
Si       -2.07167456828394    5.25294379167865    8.02142334885067
C        -0.28970731941386    4.65723180462681    8.05650708742103
C        -0.10607233718292    3.37464665919319    8.63875680066860
C         1.13879173168031    2.86822222186824    8.22255591889663
C         1.72620996052802    3.80228512681621    7.33126089925959
C         0.83670536469798    4.90130944612903    7.21155519154341
C         3.09790037948080    3.68480246461712    6.71637187615068
C         4.15977512966309    4.14633290458651    7.72219268974518
C         3.37081407249620    2.24429044699002    6.27065252795623
C        -1.06737608859261    2.75966280064041    9.61913514853252
C        -1.78431240852215    3.82980506618898   10.45041901515956
C        -2.82537021004783    4.62080591403339    9.65685012534593
C        -2.53113808744815    4.20161914941218    6.53302314789141
C        -2.10422551809229    4.72727043611096    5.28417116252579
C        -2.10977449899102    3.68827261028909    4.33582198033533
C        -2.48714986452988    2.48762659886733    4.98991572575216
C        -2.73056122027824    2.79794913976253    6.35297161593709
C        -2.69811677192506    1.15395115112479    4.31899113740351
C        -4.08285479122431    1.11848880559507    3.66054975434881
C        -1.60292812944485    0.88927857420789    3.28042045337840
C        -1.81756340413471    6.18511785221932    5.04765621131190
C        -2.67788474141162    7.08005127320485    5.94708563490390
C        -2.25281543728868    7.05390272064597    7.41601099318201
H         1.59673976719598    1.95466724314487    8.57910436149971
H         1.06904600120594    5.83304702783173    6.70398315775270
H        -1.92577942079804    3.80357514270495    3.27551340484431
H        -3.16237321785170    2.11257026024095    7.07655722989495
H         3.14466817562078    4.33886862925771    5.83522691392523
H         5.15232003648093    4.07841518012286    7.28331354062370
H         3.98030611422951    5.17702239392369    8.01936016214434
H         4.12953458266593    3.52231718480459    8.61264925523483
H         4.29343735075962    2.19896736686922    5.69606680534524
H         3.47547811135464    1.58760169232766    7.13224732241481
H         2.55478155015923    1.87250498414406    5.64461688122713
H        -2.65425053894705    0.36575163682475    5.08257696442916
H        -4.86090613177679    1.28911094585377    4.40102131838282
H        -4.15668381806293    1.89342811752388    2.90075058212480
H        -4.25500370136651    0.15315809645251    3.19064164284677
H        -0.61124078805332    1.01837307592383    3.72316131331404
H        -1.68211692203733   -0.12857109385850    2.90450229894285
H        -1.69862871629379    1.57047195189567    2.43692369415519
H        -0.51544460479701    2.09418294598648   10.28915793394285
H        -1.81400988221892    2.14344698148819    9.09867264623140
H        -1.03357488667625    4.51875422830842   10.84169064199852
H        -2.27253290663578    3.35060321401453   11.30257286220026
H        -3.68520900038790    3.98256063405371    9.45365041006900
H        -3.18614479821867    5.44371729129781   10.27030953293222
H        -0.75565115783147    6.40737825962437    5.22345708511292
H        -2.02419414861782    6.42301559752231    4.00019921408973
H        -2.62862522036642    8.10763583716526    5.57856704554622
H        -3.71469565077145    6.74803177599739    5.86862277065621
H        -1.30746869937963    7.58494477064652    7.52709352739448
H        -2.98727814946838    7.59816101750550    8.00592401911080

