73
CSD_code = TEZCEJ | q = 1 | S = 0 | Stoichiometry = C35H33ClIrNPS(1+) | MND = 8
Ir       21.34194536802556   10.28180507106099   19.45754731327743
N        23.40253373231504   10.84237596383733   19.54346450766489
P        21.52258882223140   11.03251846306782   21.62807326794025
Cl       21.67480068412664    8.19161470953754   20.49985083637604
S        25.47562900433357   12.36829922927078   19.53266956175501
C        24.40128881459338   10.09428146124888   18.97083945208152
C        24.29797932431775    8.79069542298200   18.48512927698568
H        23.36517450986463    8.25752241634245   18.57173054181878
C        25.41226728076913    8.20194670810487   17.92910277907651
H        25.34638164928598    7.19237238043253   17.55521756830868
C        26.62665455971866    8.88371300035443   17.84132714367199
H        27.48093179919898    8.39651116480670   17.39867091489347
C        26.75096333702352   10.17380687243282   18.31480013617522
H        27.68424490968814   10.70977676716813   18.25281197775853
C        25.63256874221433   10.76842175764602   18.87736867755234
C        23.80255318341556   12.04308708221349   19.88477386171802
C        22.98637182613853   13.08654820278725   20.48510856834323
C        21.89248571036901   12.78415580823436   21.31980624903764
C        21.10176876646621   13.81667149388265   21.80555607952122
H        20.24573264188193   13.58360144238080   22.42125281198324
C        21.40489753994483   15.13709304203313   21.51665055738954
H        20.78123706585151   15.92809066882760   21.90313330043472
C        22.51171989013583   15.43996819719069   20.73921786318724
H        22.75885705746201   16.46705077810397   20.52242861927058
C        23.29492374368545   14.42268915903102   20.22737346328202
H        24.14388337055572   14.65962927254157   19.60293753900916
C        20.12245334226500   10.96297417509412   22.77147160790009
C        19.00329748652786   10.20903605845782   22.44268573015031
H        18.98716220462401    9.68179258966497   21.50045796963299
C        17.94832003190982   10.11455866000529   23.33379291813197
H        17.07959981429247    9.52517082962724   23.08231068756514
C        18.01384469581230   10.76847541206900   24.55317068829980
H        17.19140698982033   10.69659322077751   25.24793021319117
C        19.14156168271736   11.50182352533071   24.89319948563383
H        19.19668080953420   11.99403029635293   25.85215005030216
C        20.20171503769094   11.59526694636340   24.01137686050769
H        21.09356951474763   12.14523046507305   24.28043234388869
C        22.87708175986628   10.46097502427476   22.70397844216650
C        24.04334521006540   11.18533156061090   22.92985196439646
H        24.19053049747218   12.15500332805135   22.47676817158587
C        25.02067495539472   10.67422685796182   23.76611008735466
H        25.92293355278688   11.24170652659256   23.93846605220619
C        24.84276328879745    9.44660881523526   24.38186186336224
H        25.61212209245094    9.05091736869567   25.02678905772424
C        23.67193508373008    8.73358256579693   24.17752684467521
H        23.52364159808566    7.78281244749011   24.66566429837925
C        22.68984425311064    9.23769219659692   23.34674257322954
H        21.77714079503423    8.68337390421258   23.18441729808484
C        21.15948799435767   10.60097640708294   17.23335315556108
C        20.39089074949830    9.47267969679847   17.57876270213060
C        19.38588928554007    9.89432936230149   18.53471607641981
C        19.48978534831217   11.32017437005073   18.68572490186012
C        20.62751752880077   11.74771070607991   17.94504630246792
C        22.23095886725079   10.66729090477324   16.19725326651162
H        22.74927231329717    9.71636711910818   16.09737123696739
H        22.96450866359494   11.43653228207157   16.43029025029221
H        21.78416499085885   10.91469903428376   15.23296112280548
C        20.47510036044211    8.09722132331840   17.01103714189726
H        21.36773118986413    7.97106678427880   16.40450926485901
H        19.60292376634776    7.90801608481124   16.38415896157927
H        20.48180446925613    7.35258476285487   17.80569982925039
C        18.24090630634610    9.02655907150781   18.94340417719640
H        17.56289792239011    9.54441408752041   19.61607605624242
H        18.59359627055337    8.11428919940296   19.42212323641828
H        17.68150871140788    8.73452782435256   18.05359723787133
C        18.52679851604973   12.21272211324790   19.39379561295721
H        17.78321925425896   12.57239606307824   18.68068691753363
H        19.03085510158820   13.07839978953944   19.81957486651216
H        18.00745488493504   11.68905436859290   20.19250339562965
C        21.02040295911855   13.16473523791910   17.69148241210897
H        20.49827848917924   13.53285989166616   16.80688023388695
H        22.08896239353488   13.25609897310599   17.50813466519759
H        20.75747563287675   13.80556523241067   18.53005889895999

