76
CSD_code = TEZCIN | q = 1 | S = 0 | Stoichiometry = C36H35ClIrNOP(1+) | MND = 8
Ir        5.56666049363310    9.20075693717740   25.42194334208588
Cl        6.39738156814537   10.94430452857212   26.76312171142997
N         5.34425265205734    7.95301459298955   27.11762419806123
O         5.08999214729709    6.04242907349007   28.21339102038847
P         7.67187442066465    8.27521704931755   25.62377111335715
C         5.60987581052638    6.66413735957125   27.15211070898107
C         4.45145219588776    7.00604477131546   28.93335921821867
C         3.74628914237148    6.91954254715418   30.12082150836941
H         3.63226368565316    5.98373762919098   30.64165433437685
C         3.20539034152099    8.09662523067204   30.59598672940934
H         2.64854288454761    8.07803948747138   31.52028688680789
C         3.35227316614154    9.32635222221356   29.93202371343386
C         4.05489157092568    9.39834430160696   28.74209963841381
H         4.20133759528196   10.33091662883134   28.22199088117133
C         4.60456136177566    8.22272386382449   28.24918415112023
C         6.33991704347953    5.90199041727692   26.15564826080160
C         7.31088813315170    6.51510018316137   25.34017362481395
C         7.90552825452093    5.77071402666585   24.33064389793559
H         8.62552404661762    6.24074632154271   23.67724461588254
C         7.59025717610049    4.43171784311031   24.16011733837194
H         8.06201010782635    3.86766446562050   23.37038032329577
C         6.68182112206876    3.81468645488174   25.00605141901003
H         6.45248832720235    2.76782315423648   24.88526129930516
C         6.05532017632846    4.54608711838487   25.99817077758114
H         5.32976360454488    4.08052088878510   26.64749180747883
C         2.73970778157919   10.55254633753166   30.52907459935283
H         3.11547206743080   10.70656675336975   31.53886794774521
H         1.65812844770495   10.44275771901017   30.59481654725417
H         2.96901001322231   11.43233864788195   29.93522053836613
C         8.51799277163408    8.31257693521514   27.23691356755148
C         8.57468530151887    7.23715482648841   28.11697058576264
H         8.11950165674478    6.28962558120172   27.86681236986123
C         9.24162677456357    7.36990903333842   29.32288831816602
H         9.28332191484419    6.53196538389673   30.00295768749156
C         9.85200728089415    8.56719086287345   29.65701730756918
H        10.36373125270992    8.66464286428468   30.60211251853833
C         9.81076538537014    9.63529271858475   28.77475549321383
H        10.29133835218894   10.56735691668690   29.02858012592166
C         9.15099152688638    9.51062491103897   27.56760680712550
H         9.11248335462201   10.34137118095434   26.87795812365103
C         9.03309869357949    8.73607192902591   24.52354970131717
C         8.91248537963307    9.87001645546130   23.73022660469616
H         7.99733090663897   10.44224071615150   23.77482703777117
C         9.96817374480570   10.26791258576264   22.92842276241706
H         9.87796077053266   11.15106768852057   22.31429966818764
C        11.14494242801249    9.53705946572879   22.92417769764454
H        11.96807801208897    9.84498747025907   22.29817822824338
C        11.27721916231007    8.42093128394805   23.73757884619419
H        12.20357064049879    7.86718006154935   23.74768783759507
C        10.22959646574961    8.02163676818805   24.54600130007090
H        10.33637745920294    7.16852099604997   25.20222554783802
C         4.18483124624777    8.17679441333081   24.01222612488633
C         3.40176969231678    9.10654611920187   24.79940327792445
C         3.87868385636260   10.40945939586753   24.54696140213964
C         4.99032770672796   10.30675891295638   23.62302482814654
C         5.11515863551725    8.92618789201551   23.23752255604147
C         3.87122004123157    6.72836826846869   23.83705723189002
H         3.09671534260834    6.61351778900407   23.07712553195698
H         3.49975792189406    6.28625005749510   24.75931221306764
H         4.74655471963688    6.16865580634800   23.51467994773191
C         2.20330144960544    8.74001018196460   25.60887350480345
H         2.03751807891841    9.44808798734018   26.41744101594100
H         2.30130918320233    7.74524931559930   26.03893006276426
H         1.32040672427127    8.74074121360272   24.96758164745732
C         3.31229560278672   11.70071623263499   25.02863662806241
H         2.90301644941626   12.25627522060022   24.18440756111472
H         4.08828549110087   12.31307993772701   25.48629947974720
H         2.51973867349672   11.54047513442087   25.75402481298122
C         5.58478527737075   11.49104880560142   22.93152147668178
H         4.80755624180324   11.99239788168544   22.35300236298782
H         6.38032795412915   11.20195579437300   22.25044073370695
H         5.97299125514436   12.20881858162521   23.65224765584740
C         5.96789763369508    8.38423726033291   22.13983376459107
H         6.28014034929825    7.36317101151130   22.34960939309643
H         6.85602372490775    8.99125930956428   21.98432118670449
H         5.39253217503878    8.37745428656330   21.21283531009268

