42
CSD_code = TEZLOZ | q = 0 | S = 0 | Stoichiometry = C17H17N4OReS2 | MND = 5
Re        0.63502098081616    0.55792472876668    5.39581675414106
S        -1.66209474856648    1.02046262271643    4.63981646121388
S         1.33560646163079    2.72624689538832    5.96400475698056
N        -0.79714755826811   -0.58300330442328    6.33732785107984
N         1.43908938233868    0.55977342892646    7.17451400623420
N        -3.14231659117279   -0.63037165140400    6.28589741203931
N         2.44509332698096    2.18075190151165    8.51388623617217
O         1.62982663610902    0.04711312804100    4.16265806717962
C        -1.95339519496283   -0.19028949362239    5.84351165616069
C        -0.62392336468318   -1.54599231956005    7.40135625380943
C         0.87364896779634   -1.77115136588306    7.63044788316822
C         1.57783547145834   -0.51070530360985    8.13423768461531
C         1.90689690833339    1.79822804287579    7.44624444750212
C        -4.44821052914054   -0.31191565903765    5.88485713970942
C        -4.74952330039852    0.30502512318773    4.67677161891563
C        -6.06887052106181    0.56972414094662    4.35495514564393
C        -7.09273181817831    0.22035359139240    5.21820511620604
C        -6.79336729864007   -0.40756496788562    6.41611505396982
C        -5.47993735151630   -0.67513050099462    6.74868065303340
C         2.93771975196178    3.44190612609423    8.78318470246892
C         3.60286736450170    4.21428443287935    7.82984665958533
C         4.12798650303070    5.44181601284239    8.18314407304115
C         3.99792660493130    5.91557436881717    9.47846289996462
C         3.34578805517549    5.14726249190512   10.43002818627283
C         2.82560861789417    3.91442397058218   10.09145988509753
H        -3.10378956994638   -1.24300437716324    7.09308436761676
H        -1.09531395818757   -2.50145797733438    7.13135992080948
H        -1.08407398847158   -1.17412225195149    8.33010249672611
H         1.32712697518069   -2.06829190874569    6.68078956193651
H         1.01078920861037   -2.57481491677716    8.35427753863949
H         1.15317205177423   -0.18503182378880    9.09313815433468
H         2.64132599585370   -0.72364055716902    8.29621448349257
H        -3.96530941504622    0.57410438383427    3.98984451581925
H        -6.29352123712903    1.05093344717513    3.41563100895074
H        -8.11858778336387    0.43127318450853    4.95899551787112
H        -7.58366410816279   -0.69037851900804    7.09484774993806
H        -5.24884654120050   -1.16619604961989    7.68435678778625
H         3.71618566861718    3.83712203291366    6.82491581381588
H         4.64359579217079    6.03367627414090    7.44097499266595
H         4.40842305943493    6.87754997698762    9.74763893937985
H         3.24678630911050    5.51110395777330   11.44268513690566
H         2.31480478438541    3.30682868377098   10.82311240910565

