76
CSD_code = TEZLAM | q = 0 | S = 0 | Stoichiometry = C33H32BN7O2Zn | MND = 4
Zn        6.89114265954281    1.30767071727990    3.61418534970525
O         5.77021132005375    2.61139595234335    3.04708933733625
O         1.37463234684134    1.92978950154553    4.14981392963800
N         6.51813080841175   -0.53941121020978    3.08220032323824
N         7.15748676405165    0.94371012448279    5.51656564369632
N         8.83398175863774    1.15314218923457    3.19801646162895
N         7.31077074743368   -1.43054345061660    3.69645946900422
N         7.88264884170782   -0.16124279272896    5.74348971905047
N         9.34232201402568    0.02724751672042    3.72969282934091
N         4.82543518513563    1.93159130898197    3.72778944193937
B         8.48473877873273   -0.94114464407335    4.56021328204216
H         9.13076606016929   -1.84906563706014    4.94197171668516
C         6.84322256581285   -2.67417334950454    3.48734251459429
C         5.70069293755648   -2.57106158251376    2.71340782910183
H         5.08659689344394   -3.37085803727910    2.35331698782255
C         5.53412553918885   -1.20287258157462    2.47633439129060
C         7.48550773798050   -3.90255739693876    4.02267755005828
H         7.47986380237972   -3.89596229357709    5.11128876668718
H         8.51965576043052   -3.97195093416398    3.69110552019509
H         6.94348249319576   -4.77742547920784    3.67457843134127
C         4.49770963570512   -0.50417276239721    1.72513936921909
C         4.83389234683390    0.56201604364775    0.89540702856227
H         5.87317833455245    0.82919694533396    0.76757993238099
C         3.84482994255402    1.26525308222216    0.23482986159874
H         4.11203584485324    2.09771034609521   -0.39909205251002
C         2.51516300735355    0.91028956205695    0.39151979842018
H         1.74205615077319    1.47021304344419   -0.11300135372936
C         2.17633049869965   -0.16457419436973    1.19628191269404
H         1.14037910115344   -0.44237142567582    1.31905088565279
C         3.16177593839576   -0.87333244034879    1.85675689458411
H         2.89818596787176   -1.70164004087781    2.49838499690863
C         7.90013506086975   -0.43101072920918    7.06096643796153
C         7.14810663092913    0.53860769833287    7.69977552001473
H         6.96839767780709    0.62962436842900    8.75142030593600
C         6.70087216816214    1.39198257024581    6.68508481201758
C         8.61976185819463   -1.58343183205157    7.66285530089971
H         9.67681513915537   -1.55359545778130    7.40598966566466
H         8.21094740137326   -2.52488674788910    7.30004356715741
H         8.51824897253225   -1.55072408155730    8.74407565746264
C         5.86781202975259    2.58387140442013    6.77713707962231
C         4.80896657900467    2.63155941161329    7.68158266093893
H         4.62475568383788    1.78806310353511    8.33200393160239
C         3.98514416399661    3.74024138836479    7.73215781448632
H         3.15783536032663    3.76408556098191    8.42617847420389
C         4.21315362292101    4.81381272294575    6.88728250469741
H         3.56178801467291    5.67435243675205    6.92104321479098
C         5.27907387067364    4.78288187174048    6.00331001960733
H         5.46492051042446    5.62141701055384    5.34922215423448
C         6.10677249767696    3.67759954540082    5.94898693845639
H         6.94539664946667    3.66011282525752    5.26706161870484
C        10.65437677946366   -0.05854684785605    3.44324082353677
C        10.99996519051928    1.05856872943067    2.70838748667821
H        11.96516560248681    1.28907709260680    2.30695985626888
C         9.81966702202823    1.80098415566040    2.57345911485837
C        11.53285942297218   -1.18007315133540    3.86591880970444
H        11.16567380135770   -2.12605093284579    3.47266072096055
H        11.56811150729919   -1.25503043805263    4.95113296864195
H        12.53920678832310   -1.01084617033601    3.49274211880402
C         9.64371185295692    3.07214159624389    1.88346411300513
C        10.72911489793809    3.93744482819083    1.74268629105066
H        11.68526981538432    3.66974755378819    2.16714591581819
C        10.58398411128795    5.14300216492552    1.08365666632565
H        11.43148705155398    5.80574351627033    0.98434376428774
C         9.35525290344794    5.50407758533591    0.55537463342335
H         9.24331550663513    6.44759219382575    0.04172416130503
C         8.27266098464505    4.65087458614358    0.69048572330258
H         7.31142462354324    4.92661513266597    0.28382634587769
C         8.41305377322342    3.44168855403350    1.34520283070603
H         7.56435163939297    2.78221810404504    1.43841150594533
C         3.61877063605085    2.34139178473596    3.62105951281271
H         3.35417439952827    3.19896623612592    3.00332487621919
C         2.54150018133083    1.63102587551491    4.30695448504542
C         2.97679149945623    0.51558121419252    5.22488859086290
H         2.11075268436347   -0.04887408216744    5.56062509743835
H         3.48355668384886    0.95330088893098    6.08247101827372
H         3.68264496577983   -0.13074932044321    4.71217812229022

