49
CSD_code = TEZQAT | q = 0 | S = 0 | Stoichiometry = C17H25BMoO2S3 | MND = 8
Mo       -2.86046718659184    2.46054100347120    8.21590946184728
S        -0.83443725055804    1.17917933347992    8.95793556464774
S        -4.11949489792205    1.78797207866647   10.33641868129632
S        -1.69529564008810    4.14746778974523    9.73832791720517
C        -1.83197181771462    2.84069885498545    6.63189335107429
C        -5.05766234581354    2.64846016782906    7.49398873156129
H        -5.17810382359050    2.59639867274017    6.41513404908979
H        -5.85066261919830    2.14797140919370    8.04417654640011
O        -1.28151806932238    3.03649594066017    5.64467358433279
C        -4.56539237168096    3.86340021881838    8.02865006037333
H        -4.94577946930837    4.29206735003371    8.95388315243570
O        -3.90149112458775    0.09494798522162    6.54512376102188
C        -0.91455344912266    3.34182095807111   11.18776622534309
H         0.14119596327351    3.26850166287465   10.93053508248649
H        -1.01124160692198    4.08315805746035   11.98315619947595
C        -0.76594957197478    1.65958914363045   13.14844593164831
C         1.27852504002308    1.38579512957033   14.44084133322867
H         2.35647408391097    1.29571211171358   14.46184765625132
C        -0.97872787270111    0.65835335817469   10.69174629419691
H        -1.64725517170664   -0.20191253227452   10.72002635186282
H         0.01805063929310    0.30339007439245   10.95388005624834
C        -0.79151353937642   -0.40839170935469    8.08040600209996
H         0.08392138560097   -0.95995378490809    8.41640461274246
H        -0.71134475241705   -0.18438909524505    7.02005157716093
H        -1.69734101371159   -0.97643542610345    8.27586890661208
C        -3.54845264098157    4.47002111406494    7.27227227775898
H        -3.62442176423383    4.42863182221274    6.19071221539589
H        -3.11834187701148    5.39185355543451    7.65065013826493
B        -1.47294991104193    1.87621917547537   11.70149792849679
C        -1.46009912847219    1.63340976679003   14.35583354058929
H        -2.53511735041073    1.74140398163700   14.35933549962446
C        -3.52969197627712    0.96582371692582    7.19666313501702
C         0.62177161995013    1.53990816459586   13.23398584483088
H         1.21498918896398    1.57349854595877   12.32919493609170
C        -0.81713158888958    1.47819620200113   15.57225424583653
H        -1.39432973832931    1.45991587814409   16.48705365418455
C        -3.10551616245884    1.87398645759797   11.85195634979830
H        -3.45372458439144    2.79424210806408   12.32672567490378
H        -3.46863967878934    1.03826244482612   12.45094736089271
C        -4.48858994210515    0.01469390428799   10.21100592389465
H        -3.58137457260828   -0.57487155471812   10.12869512737511
H        -5.10309707452509   -0.12237070802247    9.32512609984499
H        -5.04605013920903   -0.28172423804043   11.09699470172725
C        -0.22129707928442    4.65441020591157    8.80996650629639
H         0.35236406010726    5.34404004782120    9.42531417613649
H        -0.55427483039119    5.15472465824149    7.90493158048777
H         0.37152336045980    3.77742770362249    8.55827178354384
C         0.55866306025961    1.34954175216904   15.62207547995363
H         1.06482523189603    1.22761654216239   16.56934472842335

