82
CSD_code = TEZSAV | q = 1 | S = 0 | Stoichiometry = C45H30N5NiS(1+) | MND = 4
Ni        3.92257808301098   14.89177604648788    2.22897036660319
S         7.07060151957612   15.45401501859660    6.25247199574931
N         7.88857869396716   12.96481911763164    5.46716166169304
N         4.60029096527819   16.42182733024583    3.24096703222630
N         5.16711577712313   13.69211424306604    3.18834678562414
N         3.17264169718983   13.35464658671927    1.29172020427206
N         2.77192581651529   16.08726589106766    1.21008642190836
C         8.02495474591952   14.01493429548452    6.31819057637806
C         8.72683855097519   11.90283201804078    5.58447752746124
H         8.58819641980326   11.11240188538406    4.86654681504276
C         5.35923301730211    9.65082948320580    0.59860999251004
H         5.32372660581497   10.31577486155516   -0.25170708331075
C         4.29548346202252   17.74193160012220    3.06531957931768
C         8.99375910848488   13.97054872785010    7.32941393624511
H         9.06200935604912   14.81787568851380    7.99269174999216
C         6.54990087594143   11.91358678432726    3.64668650943298
H         6.97229873735883   10.93507217783221    3.54719372479333
C         0.21120572817362   14.26749196450042   -0.86115593090529
C         5.76529650673909    7.45588875388444    1.51470805404966
C         6.89323933824744   12.93823431532012    4.49490757542321
C         6.01374273986330   14.02996394275901    4.18469924795607
C         5.70929003485889    8.32630408293974    0.43023160175316
H         5.94012487039606    7.95740963585759   -0.55822198593067
C         5.12152023583482    9.28161638033320    2.95451913362877
H         4.86257654614758    9.64535937503403    3.93894510388898
C         2.02997997492528   13.33003523023443    0.54208511757570
C         3.33405351614780   22.52721366157618    1.62315845645283
C         2.85916407321730   17.45187079482649    1.13546734287469
C         9.82582562881655   12.88685719916192    7.46000886415971
H        10.57031301349082   12.85263654604722    8.23793360375734
C         4.83953671087381   18.53346135386164    4.12997819370629
H         4.71137541946017   19.59216643137172    4.23175418778262
C         5.49821153730689   17.68356554307877    4.94973755852298
H         6.03156614215904   17.90493102373227    5.85425363467220
C         9.68964672690162   11.83171231176759    6.55052238916127
H        10.32954543467568   10.96707649067961    6.60190955526553
C         3.57521220304720   12.04922518081678    1.38335444422676
C         3.46718283796568   19.73903729126500    1.88038214086179
C         5.46104699642887    7.95357542643213    2.77613038873082
H         5.48426476671439    7.29174488002122    3.62979464750389
C         5.45500478651177   12.37887502405402    2.88333728913585
C         3.55311031987606   18.27636497272384    2.01556185293304
C         2.24126749527371   20.39720939639297    1.92310143964889
H         1.33645381712588   19.82786337744542    2.07814332907234
C         5.06897087664446   10.14925666448744    1.86717792769741
C         5.37012646184844   16.38091814107187    4.37121792448357
C         1.37301921627619   14.44282860172277    0.02700099712161
C         1.36129297427012   16.88517123893453   -0.42455166975823
H         0.64861607814559   16.86047627926624   -1.22454393462752
C         2.02130560363571   17.94967043422973    0.08297096616484
H         1.95979536335793   18.97638066977124   -0.21686671287409
C         6.05613162487954   15.26485106477478    4.82037195320952
C         1.82733591868955   15.73235480850102    0.28922646211912
C         2.63086566668059   11.18594753463641    0.73176014607001
H         2.70288201530825   10.11714474339025    0.70097812645936
C         2.18087750031440   21.77253529680068    1.80166976636555
H         1.22182575820635   22.26734952246510    1.84646702576696
C         1.65683181481859   11.97832840249240    0.23535950477862
H         0.76683570578119   11.69216842472871   -0.28794659444759
C         3.27491374725576   24.01610754804448    1.49727912423561
H         2.25879444587753   24.35346289819413    1.31150279886134
H         3.91535289009881   24.35902070346696    0.68722343112551
H         3.62723089569120   24.48219740056680    2.41761976053239
C         4.55743116620375   21.86488530751762    1.58164839689155
H         5.46446043906016   22.43441562372004    1.44123572323481
C         6.11914183502396    6.01692404707291    1.31474489295647
H         5.26695514979530    5.48068640186443    0.89704020395612
H         6.38909642761037    5.54434138116808    2.25551816760649
H         6.94697308502528    5.91632977052685    0.61604240098767
C         4.62786423664056   20.49320041682254    1.71669261621911
H         5.58382850360267   19.99178675159944    1.67188508673726
C         4.70293324523772   11.56626473283512    2.03337080156039
C         0.31501432101217   13.54074261663956   -2.04452384618435
H         1.26744167878406   13.11561195284489   -2.32587961380320
C        -2.00031553436996   13.95664563905690   -2.51964354598144
H        -2.85846737482487   13.83443056350884   -3.16240146801113
C        -0.78496491171734   13.39147128864320   -2.86929715346373
H        -0.69253564628235   12.83308711920023   -3.78853837797293
C        -1.01063007040853   14.84501024828107   -0.52297723181857
H        -1.09513021365581   15.40488245971384    0.39695589280223
C        -2.11033903090342   14.68269447259199   -1.34494467571999
H        -3.05535269712455   15.12537648659131   -1.06884030512470

