102
CSD_code = TEZSIC | q = 0 | S = 0 | Stoichiometry = C41H55NOPSi2Y | MND = 9
C         3.65098842692935    9.52061139382824   10.01644795933950
H         4.26388027807686    8.71189229086481    9.63594260999506
Y         6.08467934439889    9.45659840282197   12.95837433271870
P         6.95283741155220   10.21107512383636    9.93623647559168
C         4.24528101052747   10.64873117240400   10.57837521343390
N         7.33078839404560    8.87494150229999   10.73670895746334
C         5.63227556870988   11.00701210979945   10.81029647409733
C         6.42091695229491    9.88907972695973    8.22001931500599
C         8.21963326325103   11.52696036443676    9.75501107657508
C         8.05472868709501    7.73400042715566   10.37121106319200
C         4.30869230036907   12.78847963002817   11.42616042752472
H         3.99148302654095   13.74889890907509   11.79162100000978
C         8.59292385068281   12.08024215282123    8.53735620202101
H         8.14322087265165   11.72257124346475    7.62164745024084
C         8.80197277273417   11.99133680300000   10.93020397930658
H         8.50304376445595   11.55358934488327   11.87692560018659
C         3.44026235784178   11.74112912324456   11.00930446858566
C         5.60271676970776   12.37865390136056   11.26050510870946
H         6.47632079364829   12.99049909026328   11.42655252388865
C         5.53504765201886    9.39727900471827    5.64081628973541
H         5.18609664353213    9.20288813820121    4.63729156364440
C         9.43683824235292    7.75576261861298   10.12115615045373
C         2.27699067148369    9.46662415638470    9.92478272787615
H         1.80193238175299    8.60125413688661    9.48409380183046
C         7.38258293276214    6.49614307175976   10.36228901932853
C         8.09388881647483    5.32851791763108   10.14012340368947
H         7.56587496610347    4.38462874100368   10.13483963758680
C         5.55786877326887   10.78530849182074    7.59648363773632
H         5.23456335722873   11.66822932651714    8.12941911545363
C         5.89594097160995    6.43501393111740   10.53591182758277
H         5.56675432032083    5.40719240993999   10.67537718291929
H         5.40668264878546    6.82802248153654    9.64272806225299
H         5.57239955079306    7.03958411317880   11.38933781414337
C         6.83926753875967    8.74820037258944    7.54688609765437
H         7.50779612132492    8.05147568877664    8.03275344472244
C         9.45824170143800    5.35233610121334    9.91292196701196
H        10.00099709615861    4.43474515648458    9.74135687845411
C         5.11822748576439   10.53771377706597    6.31013908959900
H         4.44491916136587   11.23189385824142    5.82928205012218
C        10.11868005331480   13.54754567560448    9.67158050726794
H        10.85790205880942   14.33407514160059    9.63641190375181
C         2.05027207147705   11.65345882277213   10.92422325643199
H         1.43204340367957   12.47445015877596   11.26086307702420
C         6.39577627980659    8.50522951095299    6.25835245531735
H         6.72209606530010    7.61674467454228    5.73748772332258
C         9.54113794246994   13.08757779102541    8.49959546461373
H         9.83004916722498   13.51576351715321    7.55078807232355
C         9.74731669833531   12.99864030988573   10.88865447744401
H        10.19465596065258   13.35859443219710   11.80378483130751
C        10.11551190874810    6.56719320632148    9.89468565584690
H        11.17870053366505    6.60034846350552    9.70262343589338
C        10.17961544041489    9.05295250470842   10.07514962840251
H         9.85769488657792    9.64270299891231    9.21415137757225
H        11.25030790815032    8.88104470294778    9.99089386440678
H         9.98934580088661    9.64465591874272   10.97053601257534
C         1.48323383454009   10.51837192253196   10.39065443585329
H         0.40796194673857   10.43885202400736   10.31306705597276
Si        8.48904483932187   11.23353563511409   15.11412037979775
Si        2.94035847804784    9.19402594589030   14.66231018101921
O         7.44876386993561    7.09393181289229   13.56850085130396
C         4.00835384735485    8.37494400670160   13.34202966390146
H         3.45908062033437    8.38667638993012   12.39388273593682
H         4.16051730738692    7.32054199280485   13.60224692010758
C         6.99860076470354   10.08934470358432   15.08490202976843
H         6.20161856785528   10.55271668244088   15.67941222119924
H         7.25219456277859    9.15794000192255   15.60743675472795
C         6.81146877385306    5.94476520724809   14.14957742300445
H         6.22760595988429    5.45019793211788   13.36499107319826
H         6.13522598346061    6.27997331385725   14.94306137037922
C         9.89009912410385   10.46963269901433   14.04051559460306
H        10.53339895573275    9.83609360880054   14.64352388784900
H        10.52261521649586   11.22899784937461   13.59087855612019
H         9.48592062513855    9.85091252507742   13.24038578806938
C         7.94636777730096   12.94190345118964   14.43349934944525
H         8.76417251371022   13.48125087517850   13.96553077170787
H         7.57199470661681   13.56511051465250   15.23972213937879
H         7.14450358105422   12.84786267259961   13.70330185578727
C         8.86746657077618    6.91880030568833   13.63808030377368
H         9.25389206670959    7.45415142371991   14.51607180359479
H         9.30706666926991    7.33630920049973   12.73094565086427
C         9.27460541403113   11.55784064904143   16.83304763499448
H         8.55382615878711   12.00280926479830   17.51179947715167
H        10.12347371196549   12.23227982054993   16.76863638184268
H         9.62329956446608   10.63565854205049   17.28821245162134
C         7.92012987187351    5.02694663030639   14.66612929459278
H         8.14756723401683    5.25188160868011   15.70859834640931
H         7.65224828776380    3.97666293500561   14.58368573841006
C         9.09447794198326    5.41886339032227   13.77417588217769
H        10.06212807686956    5.18250434927555   14.20886145754175
H         9.01112855742645    4.94236839162914   12.79730624919766
C         3.08215953613835   11.09936362664191   14.51016073773770
H         4.12072796286314   11.42666023046545   14.42072663719795
H         2.64813930842378   11.60521407572047   15.36761632299631
H         2.55460791168072   11.44487606459629   13.62672589868678
C         3.55811883994210    8.64870460666206   16.39523727602391
H         3.29572222423290    7.61456218837204   16.59472058302820
H         3.11726034377338    9.25260131122511   17.18141087104156
H         4.63744769978734    8.73730134053463   16.47548049745841
C         1.07352554323011    8.77202337708281   14.56164499804036
H         0.66984444797634    9.07000100665320   13.59916786904800
H         0.50201617270421    9.28200609520325   15.33084356368131
H         0.89985496860603    7.70653376237417   14.67479129044195

