120
CSD_code = TEZTAV | q = 0 | S = 0 | Stoichiometry = C45H69NOPSi2Y | MND = 7
C        10.80817632449952   11.45659724909044   16.81977243667981
C        11.62939135837137   11.19415958519730   18.06510900507068
H        12.70235674208941   11.11266291555944   17.85169729924592
C        11.10360098297662    9.85832504939054   18.51784884909573
C        10.13000102312924    9.43049827773118   17.69776746028553
C         9.88587886318449   10.42281795584903   16.64159601949493
C         8.87134304856541   10.30024141977107   15.66823629763471
H         8.45113279124787   11.24639711640646   15.33223466128017
H         8.10552525575910    9.56127975114524   15.89045393378298
C         9.35564911077599    8.15643310291397   17.77103057060135
H         9.76841273293790    7.48853490099489   18.52232790413955
H         9.37622385403225    7.65596247025084   16.80181626353618
H         8.31552819627580    8.35776550650394   18.02828234872652
C        11.65178208629528    9.20450061471207   19.73961807636963
H        11.19716666003071    9.62988020628820   20.63569635777537
H        12.72729926339592    9.36283904619999   19.80271245104822
H        11.45607302908711    8.13517548318634   19.73739516854009
C        11.44900093114877   12.28483166924127   19.12603658419065
H        10.40275427771145   12.35547524417643   19.41565915828680
H        11.76728824283349   13.24645712406520   18.72783073334314
H        12.04214605544190   12.06203169514383   20.01038637529545
C        13.01906017817294   13.05386856298339   16.04846617346741
C        13.92187973528050   12.00662533657017   15.88248767011771
H        13.55710722964528   11.05667157605615   15.51505081071141
C        15.25902548891175   12.16844042148649   16.18904485607652
H        15.94756027490171   11.34689794291958   16.05263878881900
C        15.71132070813334   13.38310913753033   16.67996100761007
H        16.75569335036151   13.51612535300191   16.92141778532162
C        14.81758532400288   14.42227644367539   16.87047329660470
H        15.16325209853999   15.36663430749317   17.26607081186287
C        13.47686427316711   14.25972117769409   16.56171132844366
H        12.79010279247070   15.07673441150274   16.73021059508181
C        10.46583145115937   14.31327296036376   15.96266780367761
C         9.45127213224842   14.42774757664855   16.90280342625089
H         9.15753534323161   13.54813971633099   17.45977326630238
C         8.83883140510677   15.64852686720452   17.12056905792051
H         8.05570437528884   15.73703111170414   17.85960247503867
C         9.23208295738651   16.75944393100785   16.39185370026327
H         8.75711274105059   17.71441227681877   16.56350876398513
C        10.23005847605225   16.64567764220099   15.43634675863313
H        10.52949941445601   17.50967569285051   14.86029467507814
C        10.84528776067753   15.42589332941637   15.21862222344355
H        11.62491827299995   15.33246216103120   14.47424081657156
C        10.95022251328371   13.13845975125262   13.07757823165859
C         9.75981385655862   13.80503500640423   12.72173514251463
C         9.75731557254470   14.66751173790480   11.63493370970055
H         8.84477738908778   15.17340439683752   11.35979969803004
C        10.90156444028485   14.89247399484808   10.89368875173134
H        10.88291237604466   15.57202200317636   10.05438028763444
C        12.06610453539413   14.23271933525588   11.23477733585009
H        12.96063871752057   14.40378696439816   10.65337430997655
C        12.11067586326269   13.36340292741544   12.31396857813285
C        13.40546846029464   12.66319161087616   12.64525110402491
H        13.23970393684257   12.07259585489468   13.54862051694220
C        14.52753744227617   13.66406659838488   12.92510223274511
H        14.78104501242485   14.23147594115819   12.03240808130735
H        15.41985535424527   13.14054565400870   13.26260008219782
H        14.23171205637805   14.36366959759422   13.70443506194059
C        13.80459494374870   11.69516432969672   11.53001453808169
H        13.00796184025218   10.97087503396742   11.37345328153907
H        14.71251247872761   11.16149784278597   11.80575776687232
H        13.99156121192970   12.22651208054833   10.59851980388143
C         8.47149353733734   13.53381909117825   13.46109638528871
H         8.73130637072591   13.16035371902227   14.45754608619496
C         7.59670453027339   14.77404605124140   13.64335974937330
H         8.18643517646844   15.61125379761734   14.00716715951342
H         6.81320237780351   14.56631277655748   14.36934424170778
H         7.11812687105361   15.06209035729774   12.71017497002513
C         7.68811679738981   12.44454238796611   12.72077620203335
H         7.44889350021869   12.77654353425238   11.71107323472070
H         6.75561713119196   12.22796278539185   13.23888437667553
H         8.27888052255402   11.52180828840848   12.65692884967599
C         8.87412418051685    7.89857974201465   12.83853405625498
H         9.41694057006550    7.42014529227653   12.01312107513428
H         8.87268700698422    7.15681449833333   13.65008831574417
C         6.02840127868088    8.93683273987332   13.66231265285200
H         5.98200411715917    8.30827271436515   14.54633428353868
H         5.00858899010935    9.09680080706155   13.32517495084738
H         6.43169528573922    9.89873516190599   13.96255436483333
C         6.20040285770754    6.45858890334354   11.87403814917129
H         6.70007488697336    5.94084292177276   11.06055892756509
H         5.16737066770529    6.61388742965140   11.57689232848795
H         6.19671561861422    5.78947941680108   12.72915627936166
C         6.94417398975295    9.17704400516287   10.70832027056705
H         7.28298011423655   10.19426273974392   10.87402656415673
H         5.91503800876766    9.22731102121282   10.36655064888483
H         7.53206726271016    8.75327815570730    9.89972762746325
C        12.44762743437091    8.89074393320975   14.17834384566830
H        13.18841879482341    9.44466333505945   13.58775308203402
H        12.59563736728185    9.18445779027795   15.22792605120763
C        14.61050438040048    6.56809220018616   14.58986299535868
H        15.34822959468317    7.04654725483069   13.95261792247770
H        14.77358414425724    5.49630756980945   14.52945576165388
H        14.81613794414659    6.87272476200004   15.61146711613860
C        11.63899670915353    6.09790926292084   15.23153401204913
H        11.75610130852862    6.42999094101089   16.25853980063984
H        11.82806663196825    5.02932143459454   15.20838711426686
H        10.60172384925546    6.25620036569445   14.94825762874448
C        12.61134404709611    6.39628522436213   12.28108345277644
H        11.58944094088006    6.51447044397172   11.93338298969707
H        12.85662053952019    5.34069124712806   12.22174034669870
H        13.26599219207209    6.91834822826802   11.58891177206392
C        10.07021419965015   11.31384581621843   10.06069984914689
H         9.97045645992860   12.24048472939953   10.62320515395671
H         9.09009395960087   11.00355173562398    9.67384858560433
C        11.08815121263747   11.40504818986059    8.91931946107273
H        11.84485108450217   12.14992708102370    9.15797396599104
H        10.61104704015570   11.68352388437929    7.98268998717913
C        11.69792921403246    9.99423035256835    8.87497095190006
H        11.46635423905795    9.47663893762628    7.94680078459388
H        12.77987239492045   10.03380626908187    8.98317648871594
C        11.05224361311421    9.28151940840106   10.07483368831187
H        11.74866359735579    8.66446472793210   10.64466784245841
H        10.20543641504078    8.66490518961928    9.74397407018466
N        10.95703132208035   12.20917851419303   14.14114888353724
O        10.57108641583312   10.31042377486021   10.93734452196952
P        11.25534538666917   12.68166771377545   15.64990420528716
Si        7.08628825591615    8.11082917009061   12.29615793453283
Si       12.82427512937130    7.05301413767484   14.07094522853799
Y        10.25979791670592    9.69611305436447   13.65041019498049

