42
CSD_code = TEZWAX | q = 0 | S = 0 | Stoichiometry = C14H22AuClNOPS | MND = 2
Au        1.18345864813863    9.50869132477507    0.55463510105070
Cl        4.46201527482448   14.65665735269238   -6.36886402501324
S         1.85410737363744   10.96260269890727   -1.13844926094866
P         0.58228837128907    8.03928957092830    2.16914677346766
O         3.32892515442598    8.88635304164732   -0.86572075556040
N         3.96467422577095   10.13803955217850   -2.63975440582608
C         3.18806008261754    9.98709531412694   -1.65331318801563
C         4.00977630028885   11.22756759475904   -3.48163799929280
C         4.03155055759502   12.54447310283789   -3.01880254432329
H         3.93846213770114   12.73594403707322   -1.96116450502927
C         4.17248217055864   13.59558282858505   -3.90218055166929
H         4.18689954070157   14.61282976677642   -3.54183159506077
C         4.29032189517573   13.33737074192373   -5.25742155142206
C         4.27843637004893   12.03809765372417   -5.73791707228798
H         4.37387834232111   11.85205714669259   -6.79679590777228
C         4.14738479736367   10.98987579738722   -4.85067847698967
H         4.13634312288666    9.97136364268022   -5.20764328241524
C         4.37849979984517    7.99840047758974   -1.20997138668553
H         4.23975842908515    7.62425623271137   -2.22597791549010
H         4.33327466763750    7.18254498291170   -0.49060823642779
H         5.34250808669990    8.50763494869601   -1.15333005234669
C         1.84674496770635    6.73236503864943    2.42619101411611
H         1.51861555355277    6.03913588113189    3.20690480158354
H         1.90770417794064    6.17986317184964    1.48346177996064
C         3.20211014273143    7.34666247294781    2.75270560139984
H         3.97221233594018    6.57859521134207    2.78353217544224
H         3.18270003920977    7.84808090670391    3.71824103800109
H         3.47244034193846    8.07871485741035    1.99223745368994
C         0.29262416190997    8.77490823822882    3.83065886985655
H         1.19202392676978    9.35156701728063    4.06973342860943
H        -0.52010126637218    9.49630546123046    3.69141928730670
C        -0.04075481224317    7.80926142978638    4.96204841336737
H        -0.20695306034666    8.36975345464738    5.87963788617570
H         0.77397802533161    7.11134110596956    5.13912345229641
H        -0.94406934524279    7.24459401348567    4.74443762830966
C        -0.94980805541352    7.07744963026233    1.83976274594483
H        -1.01162904039104    6.23172341208040    2.53157358262760
H        -1.79285970393779    7.74921988024717    2.03104473969881
C        -0.98537398408870    6.59600289039610    0.39395025899049
H        -1.92955176260691    6.09924504336842    0.18167210477760
H        -0.17851748966961    5.89351249796676    0.19524178453972
H        -0.87734050132625    7.43937057540878   -0.28729720863282

