37
CSD_code = TEZWUS | q = 0 | S = 0 | Stoichiometry = C10H18Cl2N6Zn | MND = 4
Zn        8.07818477834024    4.86204720089323    3.01711885437486
Cl        8.03653771671061    3.03992902385231    1.70194340519666
Cl        9.91246238891949    6.13388696407044    3.26391364172264
N         7.69324425152070    4.12641890145587    4.84144248254622
N         7.10093380875557    1.85414701139760    4.29854308085947
N         7.46852644521962    2.51111209442389    6.39663360675680
N         6.74642735285267    6.11568517559040    2.19722012117425
N         7.94696917397858    8.20191203702556    2.31844901098357
N         6.07709623101083    7.98216173114882    1.12570361193064
C         7.42219669261979    2.88130253038553    5.08045969375958
C         8.02738982001119    4.73380899081049    6.13103887077515
H         7.21595633915038    5.40446236466483    6.42988010498272
H         8.94178288779644    5.31946114202437    6.03554291560474
C         8.16778220997231    3.54875263582188    7.11880007358297
H         9.21948227408094    3.27805891679222    7.28776982038762
H         7.69359324753855    3.75025296440679    8.08086725150646
C         7.63519348396027    1.07838234374456    6.47509295496463
H         7.01948495631364    0.65714600674449    7.27283405013831
H         8.68471041839256    0.81043146869501    6.66193010219358
C         7.16554695032783    0.62269002398322    5.07019469442178
H         7.85706554475152   -0.08926357185725    4.61459581963517
H         6.17237213287277    0.16444401471920    5.11432310798365
C         6.98310455761864    7.36516071464365    1.94470329259215
C         5.55142256587420    5.75627607621557    1.43150050429375
H         4.71390784168990    5.61804078082894    2.12213679097448
H         5.72231567439216    4.81800754271203    0.90344356306229
C         5.30032589586353    6.95074282587492    0.47752214585304
H         5.67143194814411    6.74992852199053   -0.53731606149229
H         4.24544072456076    7.22507863932285    0.42255435642916
C         6.69075500974399    9.15534878461328    0.54802084238795
H         5.98579527728391    9.98902600862358    0.51670310564774
H         7.04525845697611    8.95585662646701   -0.47312981107261
C         7.86523487685632    9.41793945650869    1.52444617444305
H         8.80406529782711    9.60672499590968    0.99936694252455
H         7.65369926127899   10.27044973742933    2.17787416023112
H         8.80830092295318    7.83502627203730    2.73065207550685
H         7.26490258383378    1.91436304602644    3.29032464315447

