63
CSD_code = TEZWAZ | q = 0 | S = 0 | Stoichiometry = C29H26ClN4PPdS | MND = 4
Pd       11.96608749494460    6.45097450748658    4.19569963367217
Cl       10.61041437560397    7.58423123292359    5.66765875883557
S        13.46354937455653    5.46420312045140    2.74044948321744
P        10.73621784463679    7.54498675872571    2.68625284737825
N        12.99038221952540    5.42653314538375    5.61929121329280
N        14.14362149513724    4.80343628012421    5.27323696779785
N        14.21797552753885    2.84712616568705    8.96539647971798
H        14.92122326887220    2.16192155277813    9.18597838055712
N        15.64285916163245    4.30654529236452    3.60811402848602
H        15.75313931630791    4.18974484844409    2.61324466371700
C        12.50562181558120    5.22024409188728    6.80337299981919
H        11.61383572996245    5.78477039144198    7.05582379455291
C        13.02312080392597    4.35797508656916    7.81721474246044
C        12.45687056571839    4.23200079280022    9.13600631434348
C        13.23748566686734    3.27538575176006    9.82198688920490
C        14.09314570191609    3.48857899263989    7.77420806248430
H        14.75738345874034    3.29354963853011    6.95683627019600
C        11.38202190966355    4.83272908855657    9.78540448579432
H        10.77336662610341    5.56844213488566    9.28237617198911
C        11.11493853668597    4.46578952304874   11.08704230293775
H        10.28545243101032    4.91910090496807   11.60933114707153
C        11.89470676629142    3.51737912426820   11.75260974966308
H        11.65262639695940    3.25760784365240   12.77243454605728
C        12.96613298940933    2.90875798998800   11.13269958813555
H        13.57174236238022    2.17560735431500   11.64535421751113
C        14.46348246729434    4.81900103089068    4.01776809524541
C        16.54478910398366    3.60831171647276    4.48453720053221
H        17.55304978597113    3.66097855144811    4.07666256753024
H        16.26477242152307    2.55616655403179    4.60848765042918
H        16.52145017680615    4.09755988552700    5.45695429131063
C        10.83999931434104    7.21730046266248    0.89640842070146
C        12.06168339614346    7.48343404575376    0.28278044686067
H        12.87815469190870    7.86841632710608    0.88207251024283
C        12.22749641317744    7.24208724731421   -1.06629807916643
H        13.17630183420153    7.44749826115916   -1.53972797381804
C        11.17571187812121    6.72985363491879   -1.81118359037082
H        11.30477528275023    6.53860424100929   -2.86642056400196
C         9.96221883708681    6.45784115965884   -1.20286034640284
H         9.14481660445785    6.05464842149681   -1.78319926355715
C         9.79053359764517    6.69702923296070    0.15008565135934
H         8.84398348925999    6.47954045545797    0.62570853809666
C        11.12236794619158    9.31726168945320    2.72257640452845
C        10.49853192399156   10.24672620090310    1.89632916634935
H         9.73376108702009    9.92418636285556    1.20284423121469
C        10.87704548651578   11.57564540024504    1.95253065216472
H        10.38693303154609   12.30181117338569    1.32022883039269
C        11.88854762054527   11.97610410350081    2.81158817202065
H        12.17801298166129   13.01593166115027    2.85234994833749
C        12.53892245842288   11.04591894109809    3.60654942781199
H        13.33970473592717   11.35858063864147    4.26014766807602
C        12.16060886834671    9.71641987603533    3.56061069123176
H        12.66832111309930    8.96692943845492    4.18106682579042
C         8.99051100791722    7.23490232956836    3.07050652587093
C         7.95569781499590    8.15544892163900    3.00735600076093
H         8.15145205912810    9.17619077458435    2.71501356545120
C         6.67297023357863    7.76350042220042    3.35465157262591
H         5.86626864340231    8.48109215818030    3.31708367148987
C         6.42318110463480    6.46340490355298    3.75850905227903
H         5.42103963120203    6.16758105868959    4.03176079598231
C         7.45942431293295    5.54374578602588    3.83394330407388
H         7.26500032452395    4.53536738780465    4.16837849290451
C         8.74103175163184    5.92977943594195    3.49683437163982
H         9.58302472812529    5.23087849454059    3.58314133524067

