55
CSD_code = TEZWUT | q = 0 | S = 0 | Stoichiometry = C22H22N8PdS2 | MND = 4
Pd        6.34252460169059   10.25483623361865    0.00004652468808
S         4.53496969581845   11.14012339828689    1.21137920585614
N         6.10540230200907    8.70565290955488    1.26350510601231
N         4.98577970902504    8.61241588506172    2.01692844901525
N         6.54110701817782    5.35757860904638    4.09379614654951
H         6.04517416112130    4.93192238136045    4.85891808110736
N         3.01385936800485    9.59382618255449    2.66982202637048
H         2.53056161440041   10.47232054690628    2.77127437622935
C         7.03847198784605    7.82179147095088    1.46063890582890
H         7.90990407361811    7.88337612913487    0.81809050712504
C         7.04407528148527    6.76317728878945    2.41966655554091
C         8.09742909438959    5.78622717467296    2.53222653814855
C         7.74029806390905    4.92442358094922    3.59300583577355
C         6.12525039717726    6.44941655670520    3.39947355831928
H         5.21017627726103    6.95294319977727    3.63460166500863
C         9.28672596547611    5.56584927273523    1.84354329003539
H         9.58001254033835    6.20887808295432    1.02791535164805
C        10.08112500424768    4.50626606063156    2.22645065372786
H        11.00836871817721    4.31854464324088    1.70557313319382
C         9.71512985884969    3.66286706085299    3.27743744330347
H        10.36473389378111    2.84329362770014    3.54656372783220
C         8.54162597560477    3.85764411960721    3.97532696789065
H         8.25543433749186    3.20650517503230    4.78830395910990
C         4.19153934930518    9.64017481781941    2.01264343348191
C         2.61698726169132    8.49012002236206    3.50217930282802
H         2.95168108803705    7.56845389270971    3.02870481888794
H         1.53170749637465    8.47931933799919    3.58930889216758
H         3.05453491489635    8.55504555583544    4.50489481428999
S         8.14968177446184    9.36954379745015   -1.21134213926059
N         6.57915053125923   11.80385644688564   -1.26367029267390
N         7.69872233869985   11.89712881904509   -2.01714388726939
N         6.14300264566052   15.15205877157107   -4.09382954397879
H         6.63884039326684   15.57781315638870   -4.85895873501508
N         9.67056660304660   10.91568063572201   -2.67018953165596
H        10.15386509767095   10.03719006223161   -2.77164167531710
C         5.64603003224010   12.68767889194714   -1.46075699900924
H         4.77470430568540   12.62616699882199   -0.81806041842829
C         5.64031400922508   13.74631492697782   -2.41974773821852
C         4.58689744381028   14.72321211589188   -2.53210336911692
C         4.94384295931700   15.58510528042857   -3.59286777143801
C         6.55903234218543   14.06022152741484   -3.39960169766336
H         7.47413048616428   13.55679296776703   -3.63485561611760
C         3.39767408686381   14.94343572260880   -1.84325562004074
H         3.10452773156137   14.30029721817442   -1.02766399399785
C         2.60315084627349   16.00298634302121   -2.22598081555301
H         1.67591664452611   16.19054504836541   -1.70503045168947
C         2.96897073955199   16.84650735796401   -3.27693142444677
H         2.31924417655708   17.66601779228485   -3.54595313019222
C         4.14240034869554   16.65187075012444   -3.97498858004161
H         4.42841906266403   17.30307557724037   -4.78797439815199
C         8.49297119989247   10.86937469708253   -2.01286421060251
C        10.06738947880886   12.01937170832286   -3.50259509413369
H         9.73243837629893   12.94102443613260   -3.02928678324069
H        11.15267620532145   12.03036600853318   -3.58954484261153
H         9.63005009008698   11.95426972475084   -4.50538051010541

