26
CSD_code = TEZWEC | q = 0 | S = 0 | Stoichiometry = C7H12Cl2N4Zn | MND = 4
Zn        2.01736471657010    6.27103586054494    1.99396287915193
Cl        4.08492209668353    7.09504696822507    1.47573576257453
Cl        1.46622235318864    4.63958666441710    3.29008429072632
N         1.39663390664683    6.29004254319647    0.02813129295391
N         1.77077649814754    8.69518231045688    0.10074605582500
N         2.11152555886409    7.47346292843149   -1.74385995860402
N         1.11413507750008    8.14234765926707    2.22108240752099
C         1.72587080142201    7.43843159792894   -0.44158339671629
C         1.62107957582932    5.32686610523257   -1.05030650595496
H         0.64916469617649    4.97039541329608   -1.40257965062039
H         2.18471418136495    4.47657333435535   -0.66716840681004
C         2.37926112319182    6.11037190349675   -2.15281561693873
H         3.45612834649530    5.90309641476826   -2.13483384864932
H         1.98670213314805    5.91644459455036   -3.15171103004780
C         2.89947590074426    8.65747355471523   -1.98240856297386
H         2.72456082456733    9.05481839687183   -2.98416670304694
H         3.96881496869071    8.44574993007351   -1.85433040236211
C         2.38264289995822    9.59568631669230   -0.87638563587645
H         3.19604736640376   10.15943824912770   -0.41928101689440
H         1.62947164004331   10.28844005413425   -1.26635923300330
C         1.46614799530140    9.03912634422874    1.37769318083573
C         1.55873848377017   10.49728946161423    1.70947387818467
H         1.10162097001378   10.69138263043995    2.67643550311399
H         1.07101517707483   11.10932580023247    0.95438554728230
H         2.60791117017118   10.78632443971800    1.76523540773390
H         0.87275153803272    8.51016052398668    3.13452376259576

