76
CSD_code = TEZWED | q = 0 | S = 0 | Stoichiometry = C34H34ClN4PPdS | MND = 4
Pd        3.25123778418600    0.78161394583607   31.05587812440862
Cl        4.92391266522107    2.00405207232365   32.06000532626218
S         1.46666792207396   -0.31013156911062   30.08401614144186
P         3.97269713104237    1.87153040880474   29.24847966538023
N         2.66600326773634   -0.18938754176670   32.74144006605985
N        -0.35129762303625   -1.51473391365390   31.52645228936741
H        -0.71087498417525   -1.67872134158424   30.59859876576991
N         1.49189110936842   -0.86721601029984   32.73077794876740
N         2.34568284614909   -2.45240233357467   36.50368083811939
H         1.72883621061707   -3.10847466384665   36.95264221948732
C         3.04005333897428    0.48300985808670   27.07872682163816
H         3.45884152244662   -0.35712926444492   27.62101567430711
C         3.12829335894753    1.75571678030788   27.63705223062874
C         1.86544873251259    1.38795979358176   25.19888418579491
H         1.37135260735554    1.24657251089627   24.24889844178838
C         4.81221133760655    4.61307037987074   29.29281239525059
H         5.69874083104148    4.34665369543020   28.73673588084379
C         3.19263083182675   -1.05579073683416   34.96683943665121
C        -0.96962819621910   -2.21422080143678   32.62853394375500
H        -0.69582648954651   -1.66069154357604   33.53368386617943
C         7.58554806696678    1.46525931117238   27.36043212433663
H         8.11599411053896    1.89947039996068   26.52527280250905
C         5.28671462456516   -0.45449661059938   36.39649768489200
H         5.73848930494987    0.23104839238109   35.69616160048827
C         5.65068538267393    1.37354780354018   28.77433090565055
C         1.94441283908544    2.65325227302270   25.75516070411301
H         1.51206349095808    3.49846118699389   25.23951138110200
C         4.08307234531663   -1.08693618381798   36.09902588560017
C         2.56726557769875    5.28939466074435   30.79440703254579
H         1.70488941940192    5.55307440457426   31.38891997691827
C         3.51386759295557   -1.97506128562204   37.03817562043564
C         2.41281435348039    0.30032674221736   25.86293157752289
H         2.34401239435468   -0.68770965302832   25.43194975134105
C         8.16631525996542    0.44190559344547   28.09317721486433
H         9.15319837418550    0.08846919253437   27.83253108737919
C         3.42399378563186   -0.28217575475644   33.78884732229759
H         4.33316703319474    0.31008695810959   33.76964923288427
C         0.86168248961278   -0.93134899580681   31.59928973245717
C         4.60692417915576    5.92352284122827   29.69289320911279
H         5.33002033896178    6.68204811257978   29.43030893481396
C         2.57313735571458    2.84206929327104   26.97426216374496
H         2.62985618648101    3.82969610637777   27.41128027748493
C         2.76870089262518    3.98035411720184   30.40477488947790
H         2.07075973402175    3.18795519148010   30.70756046712245
C         6.32417603927696    1.92668098890905   27.69003351977528
H         5.85309915764249    2.70145159396273   27.10024391026406
C         3.88679374859332    3.64075938444839   29.64112118104202
C         7.48068545262722   -0.13770203924839   29.14866656585762
H         7.92920374848723   -0.94682137534819   29.70600595281693
C         6.22148617086223    0.32301892158418   29.48739256918807
H         5.66327916145101   -0.12398255797843   30.31711751720256
C         2.15297701369592   -1.90830806005484   35.27352353251928
H         1.29643029634075   -2.14957593039851   34.67834482291605
C        -0.46090472769002   -3.65611842263786   32.74433799436261
H         0.62475577210550   -3.64700999763335   32.85848391382584
H        -0.69677719364053   -4.19296607031005   31.82221004865537
C         3.48749956963725    6.26285722269968   30.43312427195749
H         3.33691579689509    7.28649247819142   30.74304803214440
C         5.31286984358942   -1.60555207735239   38.52657349956151
H         5.81463793032286   -1.78973607895977   39.46492377847481
C        -2.48736631753451   -2.20746954721224   32.46217300135463
H        -2.74817813460662   -2.72182020774875   31.53361665793102
H        -2.84237814316307   -1.17801819878566   32.38980116351396
C         5.88623421920959   -0.72344723316170   37.60831733576738
H         6.82061850647912   -0.24381873148324   37.85917746225792
C         4.12018523897969   -2.24352248407821   38.25734072347566
H         3.67352300250565   -2.92568400063047   38.96596066746636
C        -1.12172976745829   -4.35518020522495   33.92795864164602
H        -0.85234468282102   -3.83787287556874   34.85221773565059
H        -0.76029757593101   -5.38290460458375   34.00084878135581
C        -3.15346634275892   -2.91326229280578   33.64026609840293
H        -2.93569396470975   -2.36407384557825   34.55906608007857
H        -4.23634064009143   -2.91760988777248   33.50209727446020
C        -2.63946875195659   -4.34420127599713   33.77056787973009
H        -2.91452061361738   -4.91105356202004   32.87841578211506
H        -3.10616314942360   -4.82824284946411   34.63061776336940

