45
CSD_code = TEZXAA | q = 0 | S = 0 | Stoichiometry = C22H12BrN6O3Re | MND = 6
Re        1.75718090487652    2.20865768815260    7.05410275538638
C         0.28303170225881    1.76624865688125    8.25872934886829
O        -0.60054110965249    1.57110032231496    8.95648503612116
C         1.31519312140557    0.79309654007240    5.78506596819779
O         1.06241625575211   -0.00350074246413    5.00271758026666
C         2.98534983377682    1.08609819910634    8.07485227880886
O         3.75718580869620    0.48198850939995    8.66531908998763
N         3.27639267395760    3.07592464172268    5.77468696184450
C         2.90297713127035    4.27344644107933    5.27168702996031
C         3.81895118078488    5.18181294057060    4.70306585875092
C         5.16747238666080    4.79586026752111    4.65058520307153
H         5.90087576352105    5.47372636192847    4.24036935437023
C         5.52358934141790    3.55932958850760    5.13280812672222
H         6.54816015184291    3.22420963865558    5.10762455079719
C         4.54733185539816    2.73245939954441    5.69042227133483
H         4.81547709795216    1.76509888316674    6.09413894818700
C         3.34807715259527    6.44290838912142    4.23829014262933
H         4.06955618238463    7.13034545316968    3.82304556959872
N         0.68328165648095    3.74392824573697    5.95411132507598
C         1.51732142058997    4.62918874423702    5.36546844057997
C         1.08318027622037    5.88023729663904    4.88195824104407
C        -0.28106566954569    6.18617993983672    5.00868620394904
H        -0.64784802991914    7.14106600149750    4.66338021912771
C        -1.11966048382116    5.26170657932804    5.58290894581213
H        -2.17267646120753    5.45983145756665    5.70036067429986
C        -0.59489367587073    4.05546882883975    6.04920546218390
H        -1.23669386513462    3.32639432485577    6.52531233430629
C         2.03793070530504    6.77633385772790    4.32163544085888
H         1.68714870826525    7.73628598064081    3.97387887809994
N         3.43943110606722    4.46735055642925    8.11523920897821
N         2.23892041371922    3.92173156209265    8.15032502188014
N         1.34293548239100    4.78724926750444    8.55016411113515
N         1.92985122683449    5.92180034738509    8.79121677168859
C         3.23246875484933    5.72381574521198    8.52131690094412
C         4.25929843085670    6.73846335516066    8.58295272737581
C         5.55219611248201    6.44825560741558    8.15132781221375
H         5.77881208509611    5.45160578071955    7.80243913859225
C         6.52986463172858    7.42259573152216    8.17610601583225
H         7.53410967717147    7.20464521678067    7.84498892428342
C         6.20647035649969    8.68859158284961    8.63588397900537
Br        7.55297237107751   10.04136095049495    8.65814442461167
C         4.92886085744731    8.99582618821407    9.07376743627981
H         4.70119735861578    9.98809400426759    9.43280145507959
C         3.95525743485908    8.01708559467336    9.04498383317805
H         2.95085168397965    8.22639607391714    9.37913999866778

