65
CSD_code = TFBZNP | q = 0 | S = 0 | Stoichiometry = C28H22F6N2O4S2Zn | MND = 6
Zn       -0.37842661275319    3.37914543441464    4.51629605630453
O         1.29722385450726    3.65493352962005    5.57779852171209
O         0.41338146160834    4.82004765691181    3.26916175712596
S         2.12314621221304    3.67175402504049    8.27655796230281
N         0.37755397422495    1.97818525268645    3.19811198950484
F         1.05573699484621    6.76920929197127    1.55972106871783
F         1.97233019096698    7.94115986118594    3.10767909256245
F        -0.16851517326312    7.74984155437831    3.02697952648389
C         0.98104745002259    7.07016851242134    2.86410511316605
C         1.02773958394697    5.80375940677210    3.74514542652602
C         1.68813941819265    5.90425913720575    4.95080664898263
C         1.68896624971194    4.81793265498978    5.85735257920373
C         2.17708348039980    5.03878063285094    7.20978368709971
C         2.64312429766666    6.15486862794443    7.85507906352950
C         2.96483361992701    5.91031644797181    9.20125224658795
C         2.73789668324526    4.61709840563356    9.56528260744006
C         1.69222470886424    1.88893609152242    3.03875973952675
C         2.28021262958678    1.28704026015151    1.94150738476768
C         1.47718807016167    0.75091161549315    0.94132551211702
C         0.09993715252687    0.84161081010041    1.12401627745109
C        -0.39993545869012    1.45627639228437    2.25534925289146
C         2.05336129700391    0.09725825862222   -0.27105568083686
H         2.11779223027289    6.84521916273395    5.24241669373545
H         2.74540977147684    7.11634791122384    7.38700282336078
H         3.34511134109548    6.66110317773191    9.87078783128424
H         2.89702312016519    4.16690164712000   10.52529777204602
H         2.29193426916430    2.32260514143469    3.82460345983631
H         3.35592441844273    1.24715743518041    1.86160863027807
H        -0.57694718473706    0.44479099588904    0.38299138218746
H        -1.46249572009145    1.55008465255829    2.41433563133444
H         3.12710398430894    0.25355404694217   -0.32789899756238
H         1.58814822790730    0.49310054608117   -1.17158038525153
H         1.85911165143943   -0.97462126685889   -0.24218506086793
O        -2.05381198990538    3.65553584569617    3.45451407971409
O        -1.16959819224485    4.82061220703484    5.76331168231920
N        -1.13476299630925    1.97873461872415    5.83492660616996
C        -2.44606976698003    4.81846528958937    3.17548112964459
C        -1.78547158423937    5.80383584893342    5.28817893225332
C        -2.44936652005920    1.89071673452583    5.99544813302595
C        -0.35693008033893    1.45585513944038    6.77688242924937
C        -2.44609343126398    5.90431503959201    4.08264740695006
C        -2.93552053477349    5.03942314020173    1.82354833252670
C        -1.73968501518383    7.06950595330769    6.17037008277330
C        -3.03696303006398    1.28923492575488    7.09315777728342
H        -3.04937999877298    2.32504404493369    5.21019759172839
C        -0.85638227057983    0.84154549513396    7.90858723342929
H         0.70557229893586    1.54872346234261    6.61696783863227
H        -2.87667532286489    6.84500810252157    3.79154876321698
S        -2.88155870392241    3.67281250885057    0.75623834288505
C        -3.40304096600824    6.15536881285557    1.17908996641513
F        -1.82013936344191    6.76727867604409    7.47437898907824
F        -2.72835788342753    7.94293598886427    5.92354316315609
F        -0.58766292065412    7.74687865940092    6.01253589465748
C        -2.23356037232421    0.75224018739594    8.09256383012743
H        -4.11264113015343    1.25033107191789    7.17397499105355
H        -0.17923880233254    0.44392896946131    8.64895063145420
C        -3.49801085581954    4.61818203138809   -0.53163091206160
C        -3.72530114856282    5.91118191249951   -0.16701779350358
H        -3.50532588944260    7.11668998661672    1.64748800194694
C        -2.80918811960337    0.09916872371521    9.30551899241113
H        -3.65758566561424    4.16828871931541   -1.49171600819383
H        -4.10642275204188    6.66199846973997   -0.83605621664725
H        -3.88283018278695    0.25588017849333    9.36303229430503
H        -2.34324179072078    0.49522121983562   10.20557407508603
H        -2.61532121288131   -0.97277927428593    9.27696812538754

