47
CSD_code = TFMCMO | q = 0 | S = 0 | Stoichiometry = C24H5F15MoN2 | MND = 11
Mo        4.23073769720266    7.61516382917029   -0.82269717254835
C         4.12603939702117    7.76130304543214    1.49738721662801
C         2.92348223608608    7.20449471332561    1.01357219771121
C         2.26903651799753    8.20504301066399    0.24475730268732
C         3.06456000619357    9.39477283093034    0.31149064282341
C         4.19757515182510    9.11941336367896    1.07576509842210
H         4.75510732079913    7.30293802574321    2.24633043712256
H         2.50327259137448    6.25366237234081    1.31032298861651
H         1.23040626066981    8.17686610827472   -0.07246078623407
H         2.77500542393674   10.36536277773744   -0.06851374987379
H         4.93937279236595    9.84178856619234    1.38078024258133
C         5.84292123679113    5.81355763538204   -2.09509672266408
N         5.90819414957084    4.81318462265006   -2.88663917943505
C         5.48988435122480    3.63544270366409   -3.15165250504705
C         4.83486256165246    2.64605080498134   -4.28390056814427
C         6.10988304969726    2.45051746233412   -3.79863505958712
C         4.15669256823827    2.95338561734578   -3.12767869626703
C         2.96985478226080    6.12802118795688   -1.74673802738291
F         3.03455461242272    4.97615231309267   -1.04564566308903
F         1.65603620420718    6.44271015550362   -1.77296524210375
F         3.25595722200126    5.79212396073084   -3.02020528761569
F         7.73585658944879    9.39674661900682   -2.77856767719812
F         5.98335601757944   10.34046491126876   -1.94136176484737
F         7.64447729518432    9.83644837222236   -0.68715079195960
C         6.92636909270549    9.39864410150117   -1.72176939868112
C         6.28832315573554    8.06251753540010   -1.47518955301921
C         5.75038430413020    7.20827816153021   -2.51806763064078
C         5.86682901100164    7.53063186221881   -3.98633546531090
F         5.01778630815942    6.81793964994256   -4.73081784441268
F         5.61632240185981    8.81944952168101   -4.25176502429235
F         7.09523488645860    7.26408463264458   -4.44730457425487
F         5.22562572802145    4.89638965595514    1.37312995820685
F         7.18841584876425    4.42727567159889    0.59750230399703
F         5.44090148751233    3.62613690773342   -0.34351814203715
C         5.93004533807577    4.71840742328325    0.23921103286252
C         5.84047333720345    5.92568986732169   -0.64916198447421
C         6.33412443247663    7.24567512736864   -0.28965968674149
C         7.23778556887612    7.51985809337321    0.88461153654425
F         8.51941835146844    7.46207464672454    0.51676101224363
F         7.07254294101753    6.64776597254338    1.88305063461059
F         7.03710452210964    8.72675422999818    1.43932518857154
C         3.44727947194949    8.70503746792599   -2.30118917204812
N         3.05149311233590    9.32795037534622   -3.21051571499720
C         2.44650398761400   10.06996539166576   -4.09479240175651
C         2.54158846943999   11.46002522682856   -4.48391406770247
C         1.88261135563223    9.87737878558707   -5.39927800697214
C         2.85561085169411   10.84085468219495   -5.69261023229497

