27
CSD_code = THDOFE | q = 0 | S = 0 | Stoichiometry = C10H12FeO4 | MND = 7
C         4.69962627419812    1.99451950322210    1.55565112980945
C         7.71772870300831    3.82481778583769    1.60634147745595
C         8.54577599512199    2.66460946218276    1.69542019202805
C         9.46965652900237    2.52599113337597    2.89255406081592
C         9.77803734993769    1.06470199907735    3.19675307759113
C         6.27117033529933    1.84388147313941    3.36531008607165
C         6.88315729898811    0.39762003786946    1.08930930812688
C         5.68421018789784    2.92008187415074   -1.48071196959501
C         6.74681060745564    2.86712671842952   -0.41260679721665
C         6.81130082033993    3.92427099752274    0.53614478157575
Fe        6.45672362729133    2.05567654629127    1.62698466462915
H         7.73781650341938    4.58917059689429    2.37799002089575
H         9.06361387258808    2.34638159172053    0.79069194127518
H         9.00213586805397    2.98831469324822    3.77911622015213
H         8.86447951420363    0.54139195476140    3.46555667201056
H        10.21960502591267    0.59390677632269    2.32272495321522
H        10.48736708355244    1.00433191505715    4.01714566328890
H        10.54330799663024    4.08277363333544    2.38010744838213
H         5.99970158460566    3.58180139946812   -2.29029614900396
H         4.74124814253928    3.28810503805819   -1.08245137489410
H         5.51713523756735    1.93321316154656   -1.90490249441817
H         7.68779241713959    2.47944560427234   -0.79765649414992
H         6.11695079600727    4.75692649892317    0.48332470317168
O        10.70920804857907    3.16524455045972    2.62230367188215
O         3.55763164407670    1.88894250018631    1.54124326001885
O         6.10961813730683    1.63902036662143    4.48224721908395
O         7.11979039927644   -0.67846781197366    0.78580472779747

