55
CSD_code = THPDCU | q = 0 | S = 0 | Stoichiometry = C24H26ClCuP2S | MND = 4
Cu        1.20807354022309    0.73395026743531    3.41508594476962
P        -0.42096433629380   -0.03666175308147    4.84816028361509
P         1.48272647160264   -1.38112993613862    2.57190269692872
Cl        2.58953444508995    2.32107677256719    3.81487598034684
S        -1.56788061739031   -0.40215968990851    1.86621350150584
C        -2.22745941720188   -0.39343769629688    5.15572959819390
C        -2.83523623642145   -1.39151339167107    4.17555138944193
C        -3.08803251363961   -0.78859754859764    2.80316058516210
C        -1.41628945374493   -1.86259635205689    0.78293993271144
C        -0.55898063795680   -2.97662980060617    1.36191041743882
C         0.93226520788252   -2.65893704099978    1.33014147289834
C         1.09485881067282   -2.28854512285124    4.11673784415770
C         0.26869568882346   -1.71712523997237    5.08793582181163
C         0.01896551711995   -2.41391166182632    6.26800314940938
C         0.57069718745248   -3.66232552278113    6.48044439081111
C         1.39539309434308   -4.22674292658261    5.51880976866763
C         1.65899809349952   -3.54074575165740    4.34918299372291
H        -2.33330609756353   -0.76701827580376    6.17844553973156
H        -2.75960288762965    0.55975256919941    5.07954465902379
H        -2.18638840946026   -2.26743508894482    4.08804411890069
H        -3.79654008350230   -1.73198596720544    4.57387800295833
H        -3.61075406758961    0.16323527857607    2.90139510861205
H        -3.68742645245560   -1.45660443284391    2.18582136635093
H        -2.42582789981426   -2.21293141898226    0.57017957583268
H        -0.97447245862775   -1.48449415208583   -0.13916740785251
H        -0.73219869667676   -3.87926341108422    0.76688193811502
H        -0.86973277291947   -3.19428516218036    2.38738026639050
H         1.20376937307918   -2.27783027249645    0.34039171206794
H         1.49845504118895   -3.57584964762673    1.51947214077065
H        -0.59419904952447   -1.96122070086712    7.03513954978170
H         0.37194788251923   -4.19018368481333    7.40144746729570
H         1.84236713262703   -5.19509490579351    5.68876225028764
H         2.32893601232158   -3.96856966354154    3.61568437022485
C         0.04890913584941    0.70175725334298    6.44446850390958
C        -0.80652105463966    1.50355685929041    7.19224545501631
C        -0.34729874702672    2.12355958351968    8.34115466626433
C         0.96723731728040    1.96427639562237    8.74405550003312
C         1.83126172516837    1.18643495001980    7.98970391237411
C         1.37682411034716    0.56509627615360    6.84430578651075
H        -1.82951607546021    1.65442572058768    6.87919672333609
H        -1.01876396586161    2.74239762429558    8.91888988274408
H         1.32211877916228    2.45603968398239    9.63754515101887
H         2.86259754097142    1.07450914899472    8.28907671684800
H         2.05333874882229   -0.02898487351854    6.24359011524959
C         3.28857595238715   -1.62785804119156    2.54094507615715
C         3.98652254233146   -1.05722921601073    3.60445228845978
C         5.36273816957147   -1.13490484067422    3.66509018750816
C         6.06276705991654   -1.77312921842876    2.65298091136676
C         5.37929831138944   -2.31945953997257    1.58100318434355
C         3.99785350417285   -2.24574043464233    1.51751353521749
H         3.43660884557324   -0.52636577635200    4.37156287217850
H         5.89083215611670   -0.68579991985431    4.49248492533284
H         7.14035225782678   -1.83113341684343    2.69280945026520
H         5.92389128580199   -2.80171637179273    0.78187938872826
H         3.48728099026722   -2.66442051500925    0.66295933705259

