93
CSD_code = TIBBEL | q = 1 | S = 0 | Stoichiometry = C36H52CuP4(1+) | MND = 4
Cu        4.21635797409356    3.02436383956594    3.51550993730798
P         5.67970997406546    1.38704683899428    2.80116394319665
H         7.01026114424131    1.24739273477268    3.15880047477490
H         5.95985781305435    1.38802078983071    1.44375548634442
P         3.00084408205060    3.61400965092282    1.58544317712683
H         1.67610028596144    3.42428091571887    1.22400944618416
H         3.46924053476314    3.39820912574097    0.29875622890137
P         5.36497134352751    4.95029988352028    4.15460938183638
H         4.97671386137508    6.25827290642170    3.93224913544500
H         6.70596830883958    5.21310486917204    3.92704532413302
P         2.74979428146207    2.50077645062778    5.21376303342121
H         1.38814327693463    2.66204118125472    5.00771323150679
H         2.73172411645331    3.11610387715012    6.45012598373582
C         5.50563037124095   -1.04221672807704    4.13217074268287
C         5.09714219155174   -2.35904235106716    4.26072929975540
H         5.40512364187981   -2.92084515749966    5.12991614069305
C         4.30363817065411   -2.96857492532548    3.29968203954531
C         3.89069974842002   -2.21945260455987    2.20457987238730
H         3.25162103510492   -2.67761218164481    1.46319697729048
C         4.28429644578540   -0.90363104506712    2.03463037415198
C         5.12919360428294   -0.32743316213112    2.99049405395304
C         4.22004648379574    6.07130684549133    1.15524812460802
C         4.28671995714972    7.45282744623320    1.23489682149076
H         5.16690784359943    7.95956740734474    0.86630694900974
C         3.25206470421204    8.19986794330269    1.78451077021573
C         2.14149138819500    7.53167372928666    2.28453659623552
H         1.34273702855069    8.09997370207554    2.73874033270751
C         2.03488880144126    6.15229986205093    2.21914627154564
C         3.06673123922867    5.42333855685853    1.61667424461518
C         4.26311609912496    5.49514871877821    6.64442386002204
C         4.23615413822307    5.43922907000755    8.02828126326444
H         3.40229890181597    5.87834058346444    8.55702752920901
C         5.25345539128619    4.82776109917752    8.75060967238066
C         6.29997184279373    4.23573215348199    8.05518026757789
H         7.08154656161037    3.73133244980854    8.60460083672910
C         6.36000294919894    4.26627897484822    6.67129677459041
C         5.35354460933536    4.93609352243448    5.96584478289804
C         3.43185882354384    0.34903556692959    6.87145025540711
C         3.37819657803643   -0.98773555885283    7.22697258195461
H         3.88763623492803   -1.31381275657163    8.12260138454945
C         2.68107370346187   -1.91936487947490    6.46738276747639
C         2.05805479203011   -1.49517321275377    5.30264086785666
H         1.53473207962121   -2.21185667337654    4.68736393212463
C         2.08959875453544   -0.16749047439748    4.91109331236912
C         2.74702422972763    0.76291169499432    5.72344119216835
C         6.34676299003353   -0.39511943957957    5.18683400910741
H         6.26876883156439   -0.93636390936415    6.12564060024060
H         7.39666492614797   -0.38280008226599    4.88742180629384
H         6.02142621442990    0.63571268862212    5.35039720240343
C         3.89869660060693   -4.40244197705743    3.42460402394999
H         2.83636744177644   -4.52448974871772    3.22259707535606
H         4.44132824798162   -5.00350327983061    2.69532085396529
H         4.12016009497140   -4.78813555339241    4.41556051641995
C         3.82231898221710   -0.12076526191413    0.84457637056912
H         2.95949024386576   -0.59316812977866    0.38229840071762
H         3.54797112859240    0.89883014189954    1.13579969252655
H         4.61334856833598   -0.06025983269587    0.09495735744592
C         5.36321607394069    5.28333341948507    0.59385415058614
H         6.26104015101954    5.89346302854016    0.53572038659955
H         5.57345011513301    4.40996111920057    1.22308878655818
H         5.13050834659412    4.92950946880627   -0.41216996772269
C         3.33076694017349    9.69177366208917    1.83534160575244
H         4.36243880497020   10.02792966639295    1.90358646413436
H         2.90192596115415   10.11151911587006    0.92514900303043
H         2.77007637831438   10.08486179911003    2.67989820790549
C         0.83852581743795    5.45258158220857    2.78663727407260
H         0.30142096765046    6.10109292383805    3.47408069587887
H         0.15123084548859    5.16265765849270    1.99001326515215
H         1.14123856686004    4.54703948601703    3.32191292312221
C         3.14128310063364    6.12525859560031    5.87867456227099
H         2.26810042016447    6.26228704822075    6.51167172571058
H         3.43655600056303    7.10236956477490    5.49238554398428
H         2.86433468388293    5.49759106227345    5.02463046501041
C         5.22121152116843    4.80504236428121   10.24487085089809
H         5.73914606733797    3.93194809109926   10.63385745963945
H         5.72031163234992    5.69205233588915   10.63543936950042
H         4.19877989440457    4.80837878853423   10.61476379826793
C         7.47345361940561    3.58194631685950    5.94006291083365
H         7.96789578946693    2.85540701743465    6.58013834524902
H         7.08706576139736    3.06694180262428    5.05430656450688
H         8.22044713325176    4.30667128693042    5.61239907523936
C         4.20053635490735    1.32696201587760    7.70616767825631
H         4.74296078049585    2.03702214461645    7.07839426519880
H         3.52757884567475    1.89480556395704    8.35083767145177
H         4.91391061345847    0.81100975527403    8.34341673677146
C         2.60319878569599   -3.34497815353256    6.91125233718352
H         2.22052267026085   -3.98152075757133    6.11880282250012
H         3.58045735774985   -3.70897620039472    7.22194874553363
H         1.93529446980803   -3.42784850303651    7.76855694514907
C         1.41290515143182    0.27403306986438    3.65162772012280
H         1.28751009292316   -0.56184606867494    2.96892912654535
H         0.42596311462987    0.68586116047043    3.87113993632990
H         2.00384755848863    1.04946247319078    3.15198896440363

