107
CSD_code = TIBBUB | q = 0 | S = 0 | Stoichiometry = C50H52NiP4 | MND = 4
Ni       -1.53513318808620    0.31384244388835    5.03897884224046
P        -0.20626142268871    2.04305282513802    5.29993741425366
P        -1.29710646684886    0.16666387569364    2.86620915350390
P        -0.00149905248796   -1.14324885122400    5.61740424699596
P        -3.50818893970354    0.23079893249361    5.92697895718203
H        -4.42431022539953   -0.77302531863552    5.63407756900592
H        -4.47773466666533    1.21154196289699    5.74187297439989
C         1.43215699459899    1.61750796698448    4.50915778372060
H         1.75378057842364    2.48022374571544    3.91872020332043
H         2.14330308943188    1.49922171880864    5.33187990281768
C         0.50895989653591    0.39514570175065    2.45678855892006
H         0.79138434525367   -0.37283681319453    1.73102174920589
H         0.59715722230038    1.36505827256084    1.95825672214742
C         1.51367222523487    0.36170705779015    3.62295149219123
C         2.91564908483828    0.37625960878821    2.98147619735459
H         3.02704251127288    1.22972101922190    2.31460165249430
H         3.08365359964899   -0.53069035272616    2.40287514147250
H         3.68988782006277    0.43985933815301    3.74443073404840
C         1.41979939837184   -0.94710664692802    4.42790316707350
H         2.35003246467898   -1.09889493178519    4.98209607302526
H         1.33067538264560   -1.77470586862331    3.71703181375588
C        -0.22004915893630    1.63297260813183    8.03451230680936
H        -1.00781985225744    0.92864358839702    7.79797726506659
C         0.18683549654950    1.80864308143107    9.34428875682405
H        -0.29065620253299    1.24647179510314   10.13341496862049
C         1.20547736305218    2.69980780199213    9.63119802261454
H         1.53291533326151    2.84028417354629   10.65137319767984
C         1.80843686257687    3.41759027584035    8.60854332058324
H         2.60199321201518    4.11579504095114    8.83580359135760
C         1.39631424870814    3.24795079117427    7.30063085780342
H         1.85742718496666    3.81906332208525    6.50571531031582
C         0.37638294831956    2.34830891979558    7.00570901026276
C        -0.97388800326501    4.70203155375606    5.61459751865423
H        -1.14855519640399    4.42444127681971    6.64511824750567
C        -1.27752529011093    5.97933330574506    5.18455507132224
H        -1.68806517746992    6.69700032294734    5.88069719507983
C        -1.06150970106716    6.34000515637366    3.86432166115090
H        -1.30108940711054    7.33795618885370    3.52736387861774
C        -0.54463418124364    5.41139301885165    2.97727633171573
H        -0.38592624503043    5.67966775168157    1.94232615725892
C        -0.24005265451791    4.13388829053759    3.40802116723286
H         0.14073582883784    3.41528080799500    2.69647098729744
C        -0.43223748765346    3.76606717059023    4.73611410402050
C        -2.77924019027085    2.48518152378430    2.59459329058638
H        -2.98116887314548    2.32084867482080    3.64807348317717
C        -3.29095634605957    3.59039221934149    1.93912847245488
H        -3.89942679524044    4.30438107891142    2.47512405776664
C        -3.01285572421345    3.78195729716375    0.59703806239905
H        -3.40599958806283    4.64554975443368    0.08012818767349
C        -2.23088086928828    2.86409539050138   -0.08846045735822
H        -2.02068261253005    3.01281450571527   -1.13838109324890
C        -1.71895428638269    1.75990047988222    0.56596313251923
H        -1.11574402695177    1.03935591846597    0.02964525622066
C        -1.98704125950291    1.56803678854105    1.91777714243735
C        -3.02897903018191   -1.18764923905605    1.17659412927788
H        -3.66073051496035   -0.32033602748052    1.31507498168207
C        -3.47747446045448   -2.25920726607274    0.42912665658966
H        -4.45659834025426   -2.22457306447146   -0.02704867473471
C        -2.67744214951218   -3.37937650565286    0.26857410284661
H        -3.02822483078815   -4.21835003427054   -0.31456333996030
C        -1.43163129632839   -3.42332658171112    0.87083791844987
H        -0.81023216426984   -4.30173909720190    0.76733073613220
C        -0.98098598157958   -2.34916952586379    1.61541860496295
H        -0.01566633038628   -2.41112394264217    2.09812515355749
C        -1.76275510456028   -1.20709696448068    1.75803055369276
C        -1.47056359796690   -3.26440864940460    4.64272957278469
H        -2.16498055196551   -2.47846712398999    4.36353897315430
C        -1.73525649434774   -4.58404924570843    4.32514612673708
H        -2.63903660213400   -4.84041800212742    3.79146945319004
C        -0.83658342112075   -5.57123026958495    4.69179401058350
H        -1.03776831470247   -6.60457570220157    4.44842476912088
C         0.32297586782309   -5.23602202746309    5.37468612746740
H         1.02166397438666   -6.00921313387035    5.66179782645498
C         0.59196403164897   -3.91632783955441    5.68623908466820
H         1.49568986278826   -3.65417843268938    6.21929505641104
C        -0.30694018220515   -2.92080527010694    5.31951602648749
C         0.11927573963706   -1.87879628547756    8.25342107007079
H        -0.81710129965224   -2.36093663556136    8.01086257567517
C         0.59408815294468   -1.90127090363852    9.54855950394071
H         0.03114561791003   -2.40669592631248   10.32021708571515
C         1.78773847481592   -1.26924657039178    9.86002395309970
H         2.16154351964169   -1.28059092399138   10.87349479222451
C         2.49418144979723   -0.61483378385804    8.86690988347477
H         3.42004490261166   -0.11018719539689    9.10471118671482
C         2.01641313929381   -0.59126309097620    7.56872493024652
H         2.57883657802328   -0.05563169912197    6.81771358396826
C         0.83020933574818   -1.23613444975407    7.24076881958275
C        -3.57212317851141   -1.09629179888322    8.39265218894621
C        -3.51158823507601   -1.13240241057370    9.77574502428095
H        -3.48767394407556   -2.08995323526155   10.27859804836972
C        -3.46775657555170    0.03086940715197   10.53220477249151
C        -3.48120576057232    1.24978209673550    9.87222709974312
H        -3.43034938844867    2.16558295024653   10.44558028546317
C        -3.53831370041803    1.32296275344361    8.48892649783363
C        -3.60195712492942    0.14198246044508    7.74116366497238
C        -3.59269172648067   -2.36976711306170    7.60491102220498
H        -2.89029035338996   -2.30693330814542    6.77077254995666
H        -4.58698229482061   -2.55026604783327    7.19323814484374
H        -3.32503160265630   -3.22033094553359    8.22880822705475
C        -3.40707869770719   -0.04050698747764   12.02844082364768
H        -3.12568973198490    0.92016033776504   12.45321197566908
H        -2.68726350060509   -0.79182732910136   12.34902962510379
H        -4.38139691553008   -0.31989974130195   12.43068164399172
C        -3.50726860541692    2.65278253148469    7.80263876117296
H        -2.83996682582070    2.61178510496804    6.93669741045815
H        -3.15642937556987    3.42934933216792    8.47908980134362
H        -4.50234244257514    2.92804779193113    7.44932838662338

