53
CSD_code = TIBFIW | q = 1 | S = 0 | Stoichiometry = C23H24ClN4Ru(1+) | MND = 9
Ru        4.67693828817144    2.17474058064708    5.02162313634392
Cl        3.47625635452784    4.11242454062877    4.51140116895859
N         3.52988343965481    1.34252545024252    3.69586140302249
N         5.60506865225890    2.65766260414801    3.29407442974354
N         2.44424237749532    0.60587474901988    3.81904827557993
N         2.71344758361242    1.10979786058819    1.70172509287413
C         5.37872417741759    2.99905119668759    7.12330766625326
C         3.72274621881989    1.66865912978971    2.42000920040902
C         3.88439674190385    1.05813446487350    6.85264139429233
C         6.72988116240464    3.36435478723093    3.21321733443523
C         1.92552599397951    0.45895501643317    2.61507875222488
C         4.90225555522525    2.43449677420240    2.14725504788643
C         6.42490791953820    2.23101419321631    6.59813042927811
C         5.33062276443365    2.91303167427447    0.91068288987213
C         4.09071573560628    2.38503469718177    7.23060229555770
C         0.72286563867246   -0.28079045741309    2.31483408407319
C        -0.89013375809073   -1.16757268765212    0.76594790316758
C         6.50327773159686    3.63976128792173    0.84660634217801
C         7.21576211341374    3.86534184383665    2.02008812175880
C         4.94003958415867    0.29408252764797    6.27920363276771
C         5.60336546486168    4.39202437926772    7.66019850738285
C        -0.00581578237538   -0.83179445584143    3.37336242916789
C         6.20497763855431    0.90464310490480    6.14397726225820
C        -1.60730617516812   -1.71109818495938    1.82086342474384
C         0.26941830090895   -0.45548752928128    1.00502953920195
C         6.31663201321669    5.28478723174596    6.64279697961287
C        -1.16272986832411   -1.54151367407441    3.12351237827833
C         4.71818038340856   -1.14424057303590    5.93169628208675
C         6.38859869156457    4.30838634497211    8.97386089633210
H         2.54632323749787    1.19683150077825    0.71308774546526
H         7.25479654999817    3.54513097154607    4.14185531096667
H         7.43320044691754    2.62837949893280    6.58556226306212
H         4.73992554069449    2.72729327023671    0.02817478639234
H         3.28161481019142    2.94449311598222    7.69056956620541
H        -1.23714590481569   -1.29938830025673   -0.24709073697299
H         6.85467670853535    4.03229947531771   -0.09385275028646
H         8.13139708706531    4.43297359887553    2.01074326795037
H         4.62492063494299    4.83713860176000    7.86776248773782
H         0.35313190887968   -0.68410591312313    4.37906524746981
H         7.04723513722036    0.31568956979145    5.79534918882800
H        -2.51284546679792   -2.26428760551908    1.62644825146749
H         0.81592640568596   -0.04427713924362    0.16921603092819
H         7.34405491616020    4.96518644929685    6.48270950492158
H         6.33807933534411    6.30766556097646    7.00761559603192
H         5.78007153317298    5.27209181749971    5.69437817925618
H        -1.72234661397189   -1.96308711258978    3.94396318779822
H         5.51368572835381   -1.52530106900151    5.29541321632019
H         4.69564981649531   -1.73865835976852    6.84599173748923
H         3.76232805028511   -1.27307220127384    5.42596742667435
H         5.86323154085777    3.69149136171408    9.69939956799453
H         7.37674857781218    3.88415930559225    8.81035516978446
H         6.50767409466603    5.30388181806871    9.39181947205547
H         2.92282098337223    0.58698490720549    7.02215998271485

