128
CSD_code = TIBJAP | q = 0 | S = 0 | Stoichiometry = C91H32O2P2Pt | MND = 4
Pt        9.47675873155592   12.09025892765764    7.30623613120610
P        10.71159688059291   11.87185363794265    5.36478575332735
P        10.72750270674038   11.57966495214361    9.16993077876298
O        14.41501725322704   10.93053778909146    6.63315748407559
O        14.29138306312478   12.88641143118848    7.79769566793567
C         7.74456190764644   12.96365421615662    6.59360069489250
C         7.68183058364802   12.80065163027409    8.06757176242354
C         7.73309257381738   14.01844809264178    8.88408490507648
C         7.95351506532568   15.26715181875805    8.33279261495654
C         8.01673165750299   15.42574340543984    6.88966401091470
C         7.85630079189936   14.32767931847486    6.06458153266655
C         7.04989856355596   14.44226010652200    4.88289917987675
C         6.82824929955273   13.88322359300147    9.98969454610726
C         6.19408791510374   14.99647211509052   10.52836095981574
C         6.42841411144220   16.29333639857416    9.95852259264164
C         7.28983083847275   16.42035237286325    8.87279438434464
C         6.94006292892573   17.29051339592461    7.77862714743616
C         7.39067967411090   16.67452900244047    6.55627146182253
C         6.62670041292618   16.79255682307226    5.39879816514169
C         6.45466584265422   15.65144997523968    4.54409581572019
C         5.10492373252729   15.66940817856919    4.03669409556157
C         4.80593689556502   14.91725178581921   10.91031126437690
C         4.18156745028498   16.17109668061974   10.57043972882134
C         5.18623934713984   17.02154197026558    9.98066046980036
C         4.85104272971463   17.85927431747988    8.92486795745907
C         5.74725119276142   17.99887147523414    7.80420489265449
C         4.95181383792115   18.11277040671129    6.60714310457199
C         5.38411347276909   17.51968740097036    5.42807019291249
C         4.44190435085570   16.82595941791872    4.58461403776282
C         3.10539581411098   16.75053542086677    4.95224419639196
C         2.88228538970426   16.18927537340262   10.08204588661794
C         2.53593714166906   17.05950670047850    8.98675493421553
C         3.50283122539023   17.87904986031602    8.41974577395228
C         3.56514227409657   18.03580192789945    6.98706766334602
C         2.65821607446907   17.36704657330420    6.17570081229702
C         6.57076373249565   12.02052269943853    8.61888576770130
C         5.66500330491887   11.36123890409970    7.80615479016655
C         5.72802885117672   11.51922924976436    6.36250131847507
C         6.69363648369879   12.33032333060154    5.79253616856395
C         6.32946286230460   13.20991125647123    4.71596935305913
C         6.10723773170947   12.65073550650098    9.82476168122840
C         4.77134511420782   12.57137659638875   10.20059765285000
C         3.83605067801562   11.87587012493279    9.36147284734083
C         4.27967177133108   11.28953741804024    8.17992062491093
C         3.48456975756643   11.40033987984511    6.98366883379590
C         4.38056465643728   11.54271923088896    5.86458985144134
C         4.03458635703488   12.37457102390930    4.80393099657801
C         5.03176963849344   13.22585814133247    4.21801585155875
C         4.40766739748447   14.48060236157515    3.87696623298668
C         4.10853599571705   13.72862958823824   10.74960755648720
C         2.75945213566206   13.74675009388450   10.24297150592329
C         2.59207805786500   12.60047619760098    9.38374665451466
C         1.82747124580116   12.70607962706619    8.22932993405018
C         2.28133601997599   12.09096329916721    7.00699943937412
C         1.92841115392969   12.95973292014770    5.91192718722867
C         2.79024550126881   13.09858325511082    4.83196997178308
C         3.01993136079923   14.40163891582811    4.25798323612616
C         2.38064727516823   15.51518276584670    4.78555365941427
C         2.15746802708533   14.95390899678128    9.91536864233384
C         1.36382530763971   15.06187949239311    8.71723822886040
C         1.20186784457103   13.95797922503173    7.89062987726168
C         1.26421412993162   14.11476537117396    6.45793113832009
C         1.48612002107878   15.36946760275816    5.90610274821714
C         1.65681759093517   16.51431893353268    6.76471912244473
C         1.59683721085422   16.36340476744921    8.14385668977830
C        12.56374103146326   11.85452200167909    5.31775154134573
H        12.94325283370099   12.86716394327443    5.16298954171951
H        12.92040400789727   11.21552684521913    4.50674263781940
C        13.05462302461435   11.29766405923128    6.65867556381335
H        12.47403420490220   10.39827162305554    6.90780656364393
C        12.98941647370589   12.34844230822012    7.78018594143326
H        12.29781605013680   13.16449068491657    7.52252325798624
C        12.57832853055246   11.74885309671256    9.13041265209251
H        13.03986283472964   10.76681896196456    9.25788008175823
H        12.91662661716010   12.41146146564554    9.93142857581246
C        15.19710936226437   11.96057441306991    7.21781431093008
C        16.02953727373102   12.68633765556016    6.15643079913575
H        15.37705864546778   13.12311682870389    5.40537123709482
H        16.60366452963552   13.47732451496404    6.62856600739724
H        16.69988599921588   11.97930592706158    5.67786189245220
C        16.10601456892855   11.34333616255134    8.28518720625046
H        16.77545976335495   10.62830361940406    7.81767225360565
H        16.68181491889166   12.12747189066382    8.76682891412650
H        15.50674718166301   10.83001521397630    9.03214635074468
C        10.25659786503262   10.28760622561232    4.60674754118348
C        10.78251959757473    9.80812348405936    3.41209390760217
H        11.51448670051681   10.38965897756399    2.86832061321345
C        10.35199643839734    8.59229068662709    2.91260536691379
H        10.75820018810882    8.21900853506737    1.98384835885355
C         9.39819397301929    7.85395799529224    3.59630112835916
H         9.06719034049195    6.90596155782217    3.19892333389953
C         8.86534972254240    8.33118435758344    4.78315986254673
H         8.11734082426811    7.75845619364043    5.31083387005659
C         9.29463744558062    9.54517387681525    5.28477148767116
H         8.88668817376412    9.95056179415955    6.21511556268825
C        10.27021140684049   13.12592211212766    4.12736878690874
C        10.64596912742720   14.44189782562802    4.39333995144508
H        11.28692308231158   14.65191734966098    5.24095434235590
C        10.18515471891400   15.47410226574344    3.60038599082059
H        10.47638286951084   16.49173537382418    3.81524102039265
C         9.32924756393987   15.20482226185978    2.54392536854752
H         8.95601816644801   16.01250258548432    1.93232249859009
C         8.93655041034868   13.90227579226957    2.28663777390405
H         8.25537424014562   13.69366969895657    1.47473006403002
C         9.39630070093980   12.86450776064422    3.07807123273213
H         9.06693252755619   11.85232807746735    2.88965481134098
C        10.25260524074202   12.77961215997391   10.45143168636414
C        10.62356786847693   14.11002949431288   10.26528439385288
H        11.28136984147921   14.37150804109509    9.44618700198007
C        10.14576086271733   15.09104586585853   11.11260152874085
H        10.43341918094424   16.12091479321028   10.96088230903591
C         9.28369805279475   14.75584938573986   12.14436506259981
H         8.89966917417670   15.52411527473085   12.79858081289054
C         8.90096671129490   13.43719020206599   12.32492420242747
H         8.21899450965251   13.17629471775670   13.12120213350915
C         9.37569019051587   12.45069727030396   11.47919435307980
H         9.05916417469307   11.42490812136822   11.60969978701979
C        10.44247401670848    9.97978036620108    9.97333853737315
C        11.20074750865836    9.51097141185072   11.04044851670007
H        12.01662273681639   10.10605648518429   11.42642789415526
C        10.89555251562718    8.28920928565646   11.61213280471057
H        11.48226967887260    7.92211889654165   12.44152988192234
C         9.83541174987242    7.53727314713260   11.12889460432975
H         9.60263902540583    6.58499817638689   11.58183514920729
C         9.07230482878218    8.00581545594747   10.07164232848742
H         8.24252188588025    7.42227254923884    9.70140355785307
C         9.37769250549472    9.22435603342566    9.49460786214578
H         8.79149485787728    9.61859359449471    8.66921922602192

