118
CSD_code = TIBKIB | q = 0 | S = 0 | Stoichiometry = C43H68N4NiO2 | MND = 5
Ni       12.48417852588274   13.86064512447472    7.89452716927056
O        13.75335844366125   13.82930635057752    9.23533122182743
O        11.28634228031188   14.27129135426754    6.54894794437897
N        12.67982045762562   10.91209433031103    7.14185914208562
N        11.24111316752909   11.19447478066870    8.69655960046261
N        12.16929786276294   15.28735332985383    9.45823810514262
N        13.29438855426787   15.04042610042458    6.29857455247153
C        12.11124231431604   11.86582860015193    7.91103297947698
C        12.17416216308670    9.67252149476363    7.43913492765729
H        12.49799775495881    8.78761271130742    6.92978385540775
C        11.26715326309073    9.85059423189410    8.42471595144396
H        10.64871901349686    9.15063785464362    8.94913684673817
C        10.43115278416268   11.73195058476489    9.73530610450753
C         9.25390232425855   12.41447707621544    9.41115011385326
C         8.46208621965795   12.86752247505315   10.45751650157169
H         7.53914698747053   13.38403650952555   10.24993770889765
C         8.84004873850463   12.67304331689773   11.77310968648986
H         8.21873284719521   13.05159890875757   12.57151433318134
C        10.00192966880144   11.99000829802056   12.07052208857599
H        10.28096247297689   11.84171146638792   13.10200372850598
C        10.80588155026087   11.48262637058555   11.05791665254150
C        12.05298371396712   10.69722206096010   11.39744434557195
H        12.40778869388494   10.17522382058382   10.50489455620816
C        11.78727180246768    9.63748858693593   12.46949432509238
H        11.58876426348603   10.09085302958788   13.43687649064982
H        12.65839006319874    8.99415757789282   12.57377179993964
H        10.93320732773557    9.02039210470050   12.19707102761886
C        13.16103635410593   11.65610252724198   11.83049301090826
H        13.35532797225870   12.36675222905163   11.03056329145307
H        14.07509185938454   11.10472735718088   12.04298999587646
H        12.86871371747637   12.19827354977562   12.72735535577546
C         8.84449476854737   12.58916605057005    7.96677910013075
H         9.74753652146755   12.77962355990426    7.38113333127531
C         8.17935041275865   11.30316660963600    7.46196830578186
H         8.85333702239111   10.45249614891662    7.53018282517947
H         7.88499043080026   11.42193149522751    6.42179351802720
H         7.28910457943827   11.08279251005987    8.04939347390557
C         7.90964101384855   13.77445759043765    7.73778081233802
H         6.92473520693401   13.60361376521526    8.16833516472459
H         7.78557665371642   13.92956568098348    6.66860458334971
H         8.33480583999901   14.67890224067093    8.16416784715961
C        13.62499475435840   11.10204391235695    6.09566999433904
C        13.17929809742221   10.98395676485219    4.77686533613411
C        14.10835030862775   11.14632859959118    3.75728207116687
H        13.78995172835703   11.09230889305890    2.72795565002104
C        15.44058492876130   11.36369449641631    4.04524916490109
H        16.15372400513737   11.47570898456410    3.24173828846599
C        15.86918915158862   11.42963925119549    5.35802273598708
H        16.91784578954442   11.57751173682838    5.55846954001468
C        14.97125653912866   11.31446855945044    6.41044643132345
C        15.42264643256379   11.35254276506157    7.85237818036048
H        14.65219449019442   11.86584711402851    8.43350563376909
C        15.58063669797101    9.92102862224891    8.37866731238860
H        14.64364064853450    9.37170049835523    8.32687141444926
H        15.90682834693541    9.94121735277758    9.41591040543877
H        16.32553142733472    9.38387653529564    7.79329535485289
C        16.72403736528478   12.12294491461930    8.06280912564948
H        17.57845744667057   11.59968823728758    7.63755908288965
H        16.90044185658559   12.24105987816148    9.12932479333326
H        16.65346784751373   13.11242127397082    7.61946276823266
C        11.73058016891243   10.69925755363036    4.44897422960991
H        11.21429336781802   10.35956735359936    5.35068262252391
C        11.58888860893042    9.59435389333309    3.39933529092853
H        11.93769616624579    9.92412902624842    2.42451249596427
H        10.54275842377179    9.31176643291184    3.30253677867058
H        12.15888106312070    8.71353531336124    3.68860241538057
C        11.04430968228077   11.98611677398688    3.99315904729944
H        11.12530762820132   12.73492972277295    4.77760708864126
H         9.99137915810920   11.79993470186993    3.78999278838170
H        11.50869833917145   12.36689010553033    3.08585945259988
C        13.33972008763140   14.89219452039306    9.84485764956547
C        14.25938810010195   15.47370360974268   10.93172458056935
C        15.50629308790027   14.58740502179017   11.04446842360093
H        15.24498903401469   13.59424731977478   11.39805220213876
H        16.21408023236034   15.03193577508243   11.74254092382556
H        15.98666628358340   14.48642767359804   10.07513603018636
C        14.73495423762422   16.88976609504194   10.57889010920769
H        15.39300791725638   16.86170323262190    9.71480937852839
H        15.29247788479086   17.30246240115677   11.41934201378482
H        13.91163097218590   17.56124650998928   10.35519194700886
C        13.54460562175321   15.47865113922017   12.29039881341784
H        12.80631872665932   16.27188329214247   12.35805578832343
H        14.27472614525930   15.62906014073136   13.08482117486194
H        13.04259305636831   14.52959764087218   12.45900314925015
C        11.39805104900266   16.39723825290917    9.95397795923471
H        11.98317340255490   17.05633133536431   10.60886763461048
C        10.20986735364928   15.85128971027930   10.74993228627619
H         9.62052163806682   15.19906294236293   10.11217754525204
H         9.58552609626847   16.66644712686825   11.11035976266157
H        10.55550661796415   15.26654094044461   11.59913337682511
C        10.90396197114499   17.21364590240080    8.76070022912850
H        11.74853901669817   17.66215548269773    8.24161534008029
H        10.22608591277771   18.00250778000116    9.08185862641345
H        10.38682430748290   16.54786166507579    8.07349150737807
C        12.05807679723315   15.09581953615868    5.91909599857991
C        11.41122031408150   15.95262769782585    4.81779811997903
C         9.92761252302203   15.57752238395609    4.71072275416331
H         9.81052877851778   14.55613344605433    4.36026782172545
H         9.42700519693778   16.24616268841419    4.01215582094967
H         9.44614825525392   15.65999445957834    5.68117942233055
C        11.48194055404772   17.45018351252867    5.14758924345155
H        10.84438832187509   17.67941856233544    5.99698404970474
H        11.12995238421627   18.02475870526349    4.29135973301857
H        12.49007832513270   17.77634226782551    5.38434499249258
C        12.07844440639580   15.67635611548428    3.46286996487292
H        13.04660191970488   16.16034854807238    3.38069600565951
H        11.44439039386074   16.05332940076507    2.66120367196461
H        12.21782629039668   14.60814931717687    3.31832496682551
C        14.41418219518672   15.78567082273486    5.78548590323759
H        14.10581203897743   16.60195450632879    5.11914201667313
C        15.32048127478802   14.83413023217366    5.00032671868102
H        15.64075606540350   14.02555580360228    5.65066567261602
H        16.19346667474105   15.36353981208837    4.62370811962367
H        14.78150753961863   14.39748468260516    4.16292443265483
C        15.17493186686418   16.38532681480644    6.96712388182965
H        14.55065386755667   17.11504652746291    7.47877600613282
H        16.09013035072073   16.87226721881756    6.63543160520717
H        15.42001883119575   15.58737239484562    7.66435875609453

