43
CSD_code = TIBLIB | q = 0 | S = 0 | Stoichiometry = C20H16Br2CdN4 | MND = 6
Cd       14.79973037099643   -0.02473584407372    3.21931875668479
Br       16.71632745982059   -1.39637534826445    2.29268951498437
N        13.61472248597556    0.18106888349728    1.01845852504590
N        13.20595691373325    1.85656279560613    3.07877103121484
C        13.83977233973108   -0.78126724428598    0.13843175431411
H        14.87913775842507   -1.03834715558527   -0.02915219340671
C        12.82339094703878   -1.44311804685692   -0.53563708446459
H        13.05601136237248   -2.22841568079518   -1.23669545377701
C        11.51384641774717   -1.08723660344441   -0.25967455156813
H        10.69028084351401   -1.59852578255095   -0.73547772108863
C        11.27211487860987   -0.06961405086994    0.64735196836492
H        10.25991143497166    0.20237899482280    0.89841543749841
C        12.35435726065392    0.55363148524241    1.26625280414575
C        12.17945730879280    1.63338305976914    2.25614169145727
C        11.00971346245250    2.39053450278756    2.33526400226517
H        10.20091396629806    2.23024944540947    1.64097401642507
C        10.90349889728441    3.36277562459372    3.31326266354964
H        10.00392891864875    3.95435833499763    3.39834878368832
C        11.96582032679741    3.56217829942333    4.18100409182681
H        11.91706065561090    4.30078729561332    4.96513000162146
C        13.10049722961434    2.78425954362632    4.01302238650007
H        13.96422338943008    2.90466065635125    4.65563671172742
Br       12.88332250145814   -1.39678014370326    4.14566041610689
N        15.98450019888427    0.18101709888278    5.42030382071423
N        16.39341182527378    1.85663506072254    3.36016219562785
C        15.75935921418121   -0.78128266083089    6.30034627524197
H        14.71998761752847   -1.03849318392928    6.46768613015143
C        16.77566835292094   -1.44304632258579    6.97460893473611
H        16.54297993022116   -2.22832598725466    7.67566491130744
C        18.08523666771062   -1.08710054290654    6.69884119967665
H        18.90875230207418   -1.59828772466349    7.17484132882775
C        18.32705748476254   -0.06949604168713    5.79181805055532
H        19.33928785678586    0.20256499812658    5.54094017794745
C        17.24488160372823    0.55365967936455    5.17270886262916
C        17.41986336592503    1.63342243315091    4.18284450182886
C        18.58961942335457    2.39056283898038    4.10380192045120
H        19.39836686321432    2.23028095480978    4.79814839855598
C        18.69588873026817    3.36284536470213    3.12585041129935
H        19.59545214392240    3.95445087106967    3.04086109673528
C        17.63361250111930    3.56229218573799    2.25806407266653
H        17.68241442889530    4.30093773502209    1.47397376943509
C        16.49892874519952    2.78435820666462    2.42594448387468
H        15.63523361407224    2.90479201530393    1.78329190460176

