67
CSD_code = TIBMEX | q = 0 | S = 0 | Stoichiometry = C24H28Br2Cl2N6NiO2S2 | MND = 6
Ni        2.74678580461628   11.87763552247926    8.87286774979196
Br        3.81466022264390   16.42485688788088    8.60019235605647
Cl       -0.46569052055902   17.36749911385755    5.25715323199510
S         1.25815312085248   10.00302031816183   12.46050717556030
O         2.55504811156729   13.75733792516094    8.73174333169503
N         0.66621220901266   11.79233837206976    8.02888866925919
N         1.80211456958330    9.60582397028969    6.66760012941889
H         2.13359268437065    9.32582282818258    7.62537486629337
H         2.30354302804598   10.56339423307325    6.60239051344886
N         2.21917955907840   11.95260410665333   10.75566755402493
C         0.63781820557778   14.09934097215350    7.31128904172548
C         1.85220966068938   14.48565872668552    7.94872713291180
C         2.24641146883331   15.82985263231407    7.70778379508019
C         1.57454160566760   16.70863311514166    6.90223902587824
H         1.94012832083891   17.71200570950840    6.74721004335399
C         0.40412368307106   16.27751032194876    6.28274286171910
C        -0.05913751204289   15.00171237014751    6.49940496806239
H        -0.97416270793478   14.67952233467367    6.02542796231660
C         0.08720240731761   12.78436860402100    7.47357654664191
H        -0.92109036025393   12.66467071301373    7.05075707566396
C        -0.04759078829700   10.53451948833679    7.98789532763421
H        -1.13652136431546   10.68158004921882    7.97692006117965
H         0.22364924323715    9.95702910715208    8.87314095776261
C         0.34524343467070    9.75693864454161    6.72574051475135
H        -0.11589709969155    8.76650797821560    6.75556213746198
H         0.00466438934567   10.28933466058634    5.83279952070786
C         2.30582633591373    8.68161088082364    5.64768536052021
H         2.00781042957415    9.04631456305495    4.66128286979005
H         1.85524384168516    7.69851227702906    5.81069681555307
C         3.81893212995411    8.59332058541661    5.74537210049002
H         4.26661829407776    9.57695027008013    5.62824913773040
H         4.20839423951463    7.93926704850295    4.97133113597235
H         4.11444252593058    8.19406163106001    6.71208249828194
C         1.79336745214226   11.09397023083244   11.45347496252795
Br        1.67907850662171    7.33016909026573    9.14535135766768
Cl        5.96234581255854    6.38624484348810   12.48427773871740
S         4.23388092627798   13.75229689438861    5.28436790990534
O         2.93838535945009    9.99786973932370    9.01400277980096
N         4.82744131818709   11.96287024161803    9.71668041294522
N         3.69142764922501   14.14936894267406   11.07819522364188
H         3.36000035900000   14.42956727992077   10.12049787424780
H         3.18988427171931   13.19178027164373   11.14324266185635
N         3.27450362897100   11.80269191141918    6.99011257782798
C         4.85664856543952    9.65545724349974   10.43297397895721
C         3.64186239009563    9.26928602912370    9.79620068318698
C         3.24799386067669    7.92492424501021   10.03678021402410
C         3.92063602187338    7.04578865606608   10.84129876890206
H         3.55532306964291    6.04227333459959   10.99604701075753
C         5.09150431944669    7.47672098725392   11.46006964975848
C         5.55437868347663    8.75272839428039   11.24379208964535
H         6.46973119103260    9.07478761070803   11.71722526582780
C         5.40698101695296   10.97059565763415   10.27097925628658
H         6.41560785919863   11.09015977213325   10.69304124781159
C         5.54111431005767   13.22074179116852    9.75778978858856
H         6.63006684737422   13.07379572955509    9.76866929942619
H         5.26974695790297   13.79832154744308    8.87264196975958
C         5.14827962780134   13.99811554234715   11.02006480262404
H         5.60952713904175   14.98850390649120   10.99044795584763
H         5.48877878426659   13.46550978782765   11.91291100607617
C         3.18781502040737   15.07353232018818   12.09820427674755
H         3.48567483509212   14.70863720076734   13.08458217354295
H         3.63859740114085   16.05657065763253   11.93537455850486
C         1.67473806604384   15.16214923144085   12.00039638021303
H         1.22683179761596   14.17861164162738   12.11743810442698
H         1.28534435506127   15.81625833454853   12.77442491532574
H         1.37941286301726   15.56151347762037   11.03367415458903
C         3.69973056061270   12.66113149402373    6.29176648129721

