63
CSD_code = TIBPAX | q = 0 | S = 0 | Stoichiometry = C26H24N2O10Zn | MND = 6
C         9.55539933229126    0.95956612018684   -0.18072000439556
C        10.92268921554881    0.74965550440113    0.16584585553903
C        11.24113423953000   -0.30962204592068    1.03896398738217
H        12.27192611618012   -0.49436462803550    1.30554666320801
C        10.23116644663464   -1.08718555513805    1.54092128692163
C         8.90747025120046   -0.78583422454995    1.16660959145304
N         8.58116078508668    0.17240259097457    0.33470605696540
Zn        6.49215304572181    0.00033381889912    0.00024330049489
C        11.90707071642438    1.60133905227563   -0.37642451928309
H        12.93926472810293    1.43392585912776   -0.10583776538877
C         9.22766798558346    2.01123157793818   -1.05855079619023
H         8.19166407956968    2.14991568191746   -1.32105204116852
C        10.20973222585682    2.81865688078742   -1.56395111718147
H         9.95025907141837    3.62379559723716   -2.23450379506854
C        11.55671087542218    2.61631950308177   -1.22229679200236
H        12.31372389967762    3.26741891924222   -1.63324978388050
O        10.57223158824948   -3.37611360243163    1.83596308446773
C        10.48104804102187   -2.21850876859826    2.49851362722118
O        10.71220971711413   -2.06531175733085    3.66726328980032
O         8.07941893057820   -2.50824252247392    2.54124960819928
C         7.78003425322752   -1.58698024204981    1.79932307626528
O         6.06013196842694    1.59090568243277    1.50558372511855
H         5.92195364136105    1.12684215890858    2.34046658670825
C         5.18741289659342    2.70563169030350    1.43883115421051
H         5.34046019696792    3.17676190520305    0.47015550692620
H         5.42615366649900    3.42301233956468    2.22907499366149
H         4.13907391112280    2.40538591305529    1.52344932511473
O         6.61005340367181   -1.19819592876330    1.50860650301432
C        10.68840697856570   -4.53445291285821    2.65179079713442
H        11.51099122520745   -4.41943914748524    3.36067912965607
H        10.87149040564408   -5.36679940233250    1.97698436702122
H         9.75660541473378   -4.67683981955338    3.20152157994423
C         3.42862321687389   -0.95880219795758    0.18174335563753
C         2.06141320975057   -0.74927385982436   -0.16537749947810
C         1.74307390680219    0.30955339307990   -1.03907875368318
H         0.71232399429377    0.49403252112010   -1.30600137568456
C         2.75309227251187    1.08695645326709   -1.54118213334445
C         4.07672025458594    0.78592845661731   -1.16636237199208
N         4.40293423553961   -0.17179863944954   -0.33382876809904
C         1.07699131798819   -1.60094925507438    0.37683420860395
H         0.04488334034173   -1.43393968816762    0.10567351820654
C         3.75617804606691   -2.00992508242937    1.06029022992199
H         4.79210189345100   -2.14825839136841    1.32330101868105
C         2.77407858502234   -2.81734885870444    1.56563047572103
H         3.03344974328465   -3.62209835399423    2.23669056394352
C         1.42720986098006   -2.61552164675584    1.22325454299882
H         0.67017113845700   -3.26670565441568    1.63403205667416
O         2.41154848128632    3.37565974595785   -1.83800021897829
C         2.50338807434958    2.21758768607324   -2.49964385880305
O         2.27275435978347    2.06345929836846   -3.66838249273835
O         4.90474775855510    2.50779663825719   -2.54162556827068
C         5.20415561412171    1.58693176522203   -1.79921409212019
O         6.92514831533466   -1.58971043950511   -1.50501913043540
H         7.06440279874444   -1.12585835607350   -2.33983624881921
C         7.79563997619609   -2.70612115786049   -1.43795221147726
H         7.64182974658081   -3.17653665399636   -0.46905668894261
H         7.55536751451372   -3.42334025951966   -2.22787968820259
H         8.84456196059019   -2.40799010825394   -1.52283045817212
O         6.37416182096028    1.19855126951590   -1.50805700216755
C         2.29548973856007    4.53333083067010   -2.65482146246823
H         1.47343954868988    4.41743510403390   -3.36418793177758
H         2.11162526866586    5.36614395625193   -1.98080358573759
H         3.22762475388939    4.67560124690174   -3.20401491086673

