107
CSD_code = TIBREB | q = 1 | S = 0 | Stoichiometry = C51H47N2OP3RhS2(1+) | MND = 6
Rh        1.53690987256296    3.46135497353036    5.22168467961352
S        -0.74450310251212    4.02220783611220    5.77892072834131
N         0.22520856623615    2.21566468147805    4.28054863721297
C        -0.95899707148226    2.68535537005407    4.71141623491214
C        -2.16522627359039    2.11472203502075    4.31241086280804
H        -3.09336392599773    2.51770161163420    4.68295447303726
C        -2.11706532637515    1.04124582761183    3.44974550669233
H        -3.02942460315310    0.56843396386741    3.12118191707506
C        -0.88374001728471    0.57142100977027    2.99984800708099
H        -0.82325004584757   -0.26175748136501    2.32000954326356
C         0.26963653719244    1.18733039491259    3.43946611947707
H         1.25167011036175    0.85979712590733    3.12149787207326
S         3.44023013992353    2.90044603351467    3.84212952670487
N         1.55327625777781    4.53703888676325    3.47737455543893
C         2.66121890003660    4.08253358580697    2.86640630212476
C         3.05790288435232    4.55247092088663    1.61539501155497
H         3.95402017306719    4.16436347528466    1.15957679508160
C         2.27312014674089    5.50888390035358    1.00954903953924
H         2.54715644476615    5.90299810792690    0.04323961147077
C         1.11828113032105    5.96245186021225    1.64790655538304
H         0.48675142473395    6.70404148804897    1.18849366443263
C         0.78908070138166    5.44866190618863    2.88439802075876
H        -0.09484718427568    5.76904918460332    3.42109439791533
C         1.01948498173555    3.21083755835993    8.60350494430536
H         0.94433748686980    2.50196496999750    9.43333416960418
H         0.02244254976983    3.61759998277557    8.40196503115343
C         1.94408195624090    5.47782432844754    7.95767196979319
H         0.90912657640224    5.76704420932238    7.74353800684919
H         2.47661670093586    6.35209814635759    8.34813844842638
C         1.35171328526301    4.97238902670405   10.30723131579386
H         2.11207173923948    5.57779545049280   10.81001594468366
H         0.50926930778718    5.62627468847809   10.07810212968648
C         1.93770029965291    4.36314756660471    9.01952096114638
C         3.34818928769765    3.86278169999602    9.30034123693621
H         3.73313298091003    3.31794130450249    8.43993321526717
H         3.34096691532816    3.19866559615741   10.15970734513498
H         4.01712724934632    4.69457386199318    9.51318894252264
P         1.44461428256960    2.20609755415997    7.13309612185892
P         2.69706796813759    5.08179225488222    6.32503588584603
P         0.80071343604470    3.71488897238291   11.56139083624605
O         1.72485481241659    2.58260924321957   11.71850765557006
C         0.29925893028107   -0.15357024520395    6.32987757438364
C        -0.69977966199842   -1.09460518714536    6.17537880891067
C        -1.93600556921984   -0.89414498547785    6.76894926620636
C        -2.16280659517442    0.24756220331358    7.51768334766954
C        -1.16751466572406    1.19716971078878    7.67175868514342
C         0.07534724800911    1.00042620211163    7.08039379766987
H         1.26740565707663   -0.30873544738969    5.87110452724706
H        -0.51482029634086   -1.98486028165687    5.59351464800622
H        -2.71831094326160   -1.62784619600423    6.64974587931235
H        -3.12159439156098    0.40808274116590    7.98677557125568
H        -1.37889171101773    2.08225732273780    8.25063442915651
C         2.90496578923913    0.57068654372087    8.88785004897515
C         3.90996772710809   -0.33084465129657    9.18551173648965
C         4.80753379488191   -0.73212856931123    8.20840560243494
C         4.69470243014816   -0.23622281521662    6.92060964157433
C         3.69335473616014    0.66845720596790    6.61579397550994
C         2.80400900764732    1.08895597987727    7.59939595897923
H         2.21707594154837    0.86803838788495    9.66388547455553
H         3.99066968390915   -0.72258093459755   10.18783828047898
H         5.59005591256347   -1.43486486738747    8.45019043538301
H         5.38339048905400   -0.55320474718819    6.15207907291680
H         3.59762081352051    1.05055497702336    5.60694546724764
C         3.46956235246915    6.93427920080777    4.42469575930565
C         3.30548101108756    8.02485187895833    3.59226068900174
C         2.16787263482856    8.80993771243284    3.69317580297483
C         1.18933945640812    8.49203810603882    4.62016597198466
C         1.34332137129054    7.39511011032032    5.44990116827549
C         2.49745630298200    6.62152232039108    5.37452661101435
H         4.35676071727551    6.31951058077030    4.34500249665222
H         4.06597569629760    8.26247210555508    2.86394255942289
H         2.04254684073244    9.66464736325909    3.04653659725805
H         0.29815235682571    9.09702121786855    4.69368514940483
H         0.55863475712512    7.14117841288088    6.14764136361112
C         5.06752116886461    6.27226800625487    7.08704955123645
C         6.42111295831254    6.31851158425958    7.35962965066030
C         7.20406380281881    5.18650466729764    7.19062409407884
C         6.63005935630264    4.00664938330922    6.74858800217431
C         5.27473771791260    3.95381262302085    6.47405463024542
C         4.48807959696365    5.08584808629624    6.64113998307496
H         4.46024830481562    7.15976450024782    7.20679405520988
H         6.86759629464650    7.23977277257163    7.70219328810796
H         8.26145150042148    5.22773047815232    7.40187888311251
H         7.23657820000964    3.12412979600393    6.61520239904147
H         4.82717865014487    3.03334837202180    6.12878606600022
C        -0.21689086132483    5.80384844098148   13.17413503477680
C        -0.32784141564867    6.47427915343588   14.37777430808876
C         0.36960986192907    6.02941567085883   15.49068545359719
C         1.18097153000388    4.91039258317933   15.40282745239751
C         1.29464673277004    4.23654193889678   14.20004044534601
C         0.60018471577680    4.68359833002059   13.08443361951428
H        -0.76670447961573    6.14913582497972   12.31133032815201
H        -0.96192997421924    7.34529099859143   14.45130178692086
H         0.27635871935224    6.55649633031011   16.42810883174747
H         1.72156587472864    4.56291052641352   16.27019393194798
H         1.91925552226395    3.36018048304252   14.10499503346008
C        -1.17958581868439    1.84739751361724   11.36560767520546
C        -2.43652335927556    1.34048181017420   11.09053329746204
C        -3.40893050231319    2.16859700758413   10.55432405832873
C        -3.12110369867127    3.49932459476116   10.29430834391133
C        -1.86493562059573    4.00819964699245   10.57201544846850
C        -0.88599990720771    3.18048162651475   11.10663601243144
H        -0.40655274917253    1.21836906394716   11.78360800616153
H        -2.65785175443759    0.30421752877662   11.29674368431261
H        -4.39454374405018    1.78129753385383   10.34348277625196
H        -3.87990399089751    4.14463144328345    9.87690146627324
H        -1.65641801138814    5.04777721143080   10.36524378108193

