72
CSD_code = TIBXEH | q = 0 | S = 0 | Stoichiometry = C34H28Cl3N6Ta | MND = 7
Ta       -0.82729016623073    7.48852985741840    3.99757489015782
Cl       -3.03001873004563    6.52659577444414    4.22818172656476
Cl       -1.91918456249243    9.52727824823749    3.68061955309581
Cl        0.87731478725416    8.83388079370808    4.92432664121108
N        -1.41300054830396    7.28835437636370    1.76484370446547
C        -2.36244109739184    7.57663555898448    0.86087213078235
C        -2.05355670801629    7.49768658152796   -0.50819709905616
H        -2.82237168496452    7.65273169593689   -1.24464484240882
C        -0.76407267003982    7.17158542998269   -0.87995060464229
H        -0.51269327728450    7.12077709053222   -1.92896110787312
C         0.21547674040738    6.89694033436228    0.06485251685245
H         1.23009831438828    6.67635073639921   -0.21920024417127
C        -0.15925178730924    6.94084592097015    1.40700069922947
N         0.55793725202129    6.76167151847253    2.54142578841445
C         1.77773539539015    6.08400576831278    2.54528508203857
C         2.76835460219749    6.45561948112108    3.45461889437381
H         2.58868743112431    7.29196368397523    4.11112005522050
C         3.96142854138528    5.76219684127351    3.50947514566786
H         4.72002283428791    6.06627534085147    4.21529453135708
C         4.18908880662199    4.68505141104837    2.66955046494629
H         5.12279821499512    4.14531273592941    2.71497878618125
C         3.20391078403585    4.29849569372652    1.77720694502949
H         3.36302399667073    3.44864452834678    1.12963612420905
C         2.00720584501836    4.98433837941899    1.71363806243709
H         1.23078052740954    4.65388743441851    1.03960539949102
N        -3.57833808779869    7.85603230747372    1.38110224926063
H        -3.68451993424623    7.58561742366317    2.36058012329332
C        -4.69651988647400    8.41258468051083    0.76711616966050
C        -5.95300555828835    8.08383363216181    1.27528119194763
H        -6.01791710216109    7.40356015758160    2.11128399095710
C        -7.09362007000725    8.62438742702967    0.71564653800974
H        -8.06172009903242    8.35912112100592    1.11355431607458
C        -6.99968224928411    9.50429912673152   -0.35099325404791
H        -7.89200611549664    9.92355084026894   -0.79012424784678
C        -5.75269178826003    9.85760379371214   -0.83712579251785
H        -5.67007806737226   10.56444426598721   -1.64955751776864
C        -4.60372772302781    9.32409534561442   -0.28181524570824
H        -3.63595966247572    9.64132865981133   -0.63750468372759
N        -1.28117199954362    7.52167608135753    6.31020160141625
C        -1.80292336556364    8.18870801060038    7.34696922065203
C        -1.65538845283874    7.67136908310216    8.64361724655222
H        -2.00432209264885    8.22992490238208    9.49419331125369
C        -1.02603094460933    6.45088000805301    8.80260208077363
H        -0.92137684126236    6.03601980321368    9.79412444334901
C        -0.52104405563195    5.75043891007217    7.71804259238524
H        -0.05089766903900    4.78899040370642    7.83224293767336
C        -0.63711885343392    6.34600973022388    6.46142989889095
N        -0.23698389290961    5.92994636698470    5.23790928945360
C         0.44054999943393    4.72939419833011    5.02706548487744
C        -0.01098875265487    3.89649161553939    4.00319838895193
H        -0.89216685507009    4.19171114276468    3.44721737251993
C         0.65462946410180    2.72067811591141    3.71838381531700
H         0.29452801114619    2.07862036106804    2.92820481154882
C         1.78099057094279    2.36437893062681    4.44163063763779
H         2.30230930657680    1.44667853497503    4.21580253657015
C         2.24123977076963    3.19441414860499    5.44964158449065
H         3.12815611922434    2.92820208164942    6.00530552547995
C         1.57939747458735    4.37039469297778    5.74697340582622
H         1.95478300114748    5.03476441071019    6.51065551937388
N        -2.40505213585328    9.35980732085576    7.02367646416624
H        -2.24455036789468    9.66607444945811    6.06651612857422
C        -3.23137067524125   10.17708313863789    7.79248386691725
C        -3.26058887892643   11.53975674634815    7.49656587055320
H        -2.64038250039947   11.91679913628597    6.69704298931571
C        -4.07346603551990   12.39313468696187    8.21587725894589
H        -4.08332104152674   13.44692493358110    7.98057682831465
C        -4.87360134575681   11.90230477113927    9.23527393422264
H        -5.50512260593613   12.57051324646317    9.80055082305674
C        -4.87179058643408   10.54583455925894    9.51067152487832
H        -5.51379223273079   10.15104075828108   10.28432418665410
C        -4.06423448795691    9.68206635305283    8.79287498655074
H        -4.10719354616514    8.62155436947507    8.98415635191101

