27
CSD_code = TIBXIL | q = 0 | S = 0 | Stoichiometry = C11H9Cl3N2OW | MND = 6
W         5.23394744400818   -0.16130043123017    1.58935841476406
Cl        5.89387956595198    0.62597394985985   -0.53073643397854
Cl        4.14005985596600   -1.87042529669369    0.64410992605193
Cl        3.98323092387773   -0.47640422983880    3.56424899116387
O         6.66099347697628   -0.89163500684944    2.01664389745473
N         3.48137620551332    1.14328407554904    1.13113230571025
C         4.09411270694788    2.17900447242682    1.77265801401112
C         3.41312372299363    3.38085443047523    2.02332061928955
H         3.88670556264236    4.16505897962672    2.58962467124315
C         2.12073271708810    3.50403256635666    1.56079240452102
H         1.57236575406462    4.41635669915630    1.74044519534304
C         1.51866865430886    2.45235794464320    0.87021931170840
H         0.51249496863952    2.53915369678072    0.49695228100934
C         2.23133419959996    1.28438998569368    0.69237797584845
H         1.80815878503693    0.42337933737429    0.18992322806322
N         5.33957519151658    1.77476827569409    2.13836450473869
C         6.31208677252952    2.55003117810150    2.78305045418002
C         6.55089813228679    3.89738981146540    2.52037546734832
H         5.97606840089921    4.41440073780932    1.76749428238894
C         7.57081042985798    4.55094697303373    3.19057550829073
H         7.75838863832093    5.59345061939452    2.98144964166458
C         8.35407393884510    3.87806355232142    4.11240489245775
H         9.14511309819574    4.39832205828954    4.62982998405479
C         8.13383782771393    2.52988944261338    4.35617566627603
H         8.75514910421187    1.99907635074053    5.06087519874123
C         7.12130874432977    1.86490997117158    3.69452955438638
H         6.92580517767617    0.80356985603475    3.85300404326864

