34
CSD_code = TICDAL | q = 0 | S = 0 | Stoichiometry = C13H16CrO3Si | MND = 9
Cr        4.22237765721235    2.72117729967132    6.35280143973241
Si        3.96117083874232    6.40980652338882    5.80713664241597
O         3.17124050273496    2.85607189181708    9.13100462952775
O         6.66253824002948    3.33987558701708    7.93519768403961
O         4.94150641246326    0.02964514265932    7.39578633421761
C         3.75782156502739    4.62346203721930    5.20069644278119
C         2.56654448972719    3.91368846649408    5.42030229736160
C         2.39677196023070    2.59490524043280    4.97003629027380
C         3.45102459551878    1.92515771681272    4.33509000919817
C         4.65498723310467    2.61986637507997    4.10779993120919
C         4.80494988975597    3.93527105498837    4.55540276209671
C         3.26953320558757    0.53519435412539    3.80236931395647
H         2.99424044249601    0.57026763453800    2.74611679864298
H         2.48352821664577    0.01091306817675    4.34183342109255
H         4.19177440772822   -0.03597589278878    3.89169644291631
C         3.25448452040409    7.56987856874562    4.46029347648564
H         2.20723085835509    7.36351954094797    4.25882437251189
H         3.79388148760144    7.47545181870470    3.52211211588131
H         3.32832780758852    8.60539657499918    4.77659135860195
C         5.81290535506079    6.74794678533670    6.09441541379195
H         6.25715949372674    5.98340572775656    6.72536101003645
H         5.95460033219071    7.70360739355957    6.58865889636705
H         6.37319488864047    6.78211638123803    5.16476361908899
C         2.99665182570407    6.58033466645543    7.44065966768620
H         3.23854521750009    5.76942557588361    8.12281454000614
H         1.92228754414119    6.57270390214289    7.28283659131227
H         3.24033898756028    7.51368061278946    7.93778453470229
C         3.53306601775590    2.82256589552712    8.03180109327813
C         5.73305408200381    3.12564665336761    7.27861286092772
C         4.64915109814601    1.05535953340408    6.94768181980695
H         1.72012542391541    4.42529482788764    5.86484821068155
H         1.43561290123776    2.10464520730025    5.07794601537374
H         5.44700599234865    2.14233715634628    3.54170618312659
H         5.71956650911410    4.46795667797624    4.32061778087084

