111
CSD_code = TICFUJ | q = 1 | S = 0 | Stoichiometry = C55H46ClO6OsP2(1+) | MND = 9
Os        2.72647697026526   13.18157582736937   21.11899864046308
P        -0.60574517459615    9.85011992149539   22.26877988127703
P         3.37387582476196   12.57548134719405   18.93950821532111
Cl        3.48279361707306   15.23099387708414   20.36675212056840
O         7.16116810482500   10.69069480592248   22.60187547626815
O         6.87637671080233   12.65805969829219   23.64704639719259
O         4.36504842398084   14.90328131505561   23.56637117410719
O         6.13277412280743   14.87466400048212   22.17894315793999
O        -0.77137770765770   15.61896770292589   19.71862230349977
O         1.35345062356251   11.10276343569492   24.30928748712662
C         0.74315421194743   12.22747010021205   21.73148137857322
C         0.80469141826647   10.75609217506559   21.65046224617569
C         2.02963229006299   10.22127347377075   21.43887212958992
H         2.20729781463503    9.15331468138289   21.47650014460530
C         3.13171103358723   11.13770308985170   21.38297501934771
C         4.37379175693011   10.79649080499351   21.80535140110793
H         4.71198034005634    9.78896704017265   22.00238951478346
C         5.17470390206962   11.91943281212948   22.21062431402700
C         4.55982988392405   13.11701961097198   22.05840815078890
C         5.00852215665106   14.38301176541929   22.67934891287829
C         6.50654918897962   11.67741781336854   22.82408287804400
C         6.07054338916464   13.01124639697847   19.35551701561240
H         5.73406373781870   13.82800073072558   19.97684142825145
C         6.58583069381708   16.10051602131054   22.74275666491621
H         7.55235381150669   16.30386863727191   22.28989202753737
H         6.67646622122532   16.00636567690858   23.82606223102190
H         5.88029307815107   16.90100150649648   22.51208899444330
C        -1.87136218442026    9.80979936227562   20.97913152179104
C         8.15939679364550   12.52555195011691   24.25015054158021
H         8.19809107239343   13.25813442390776   25.05211278317860
H         8.94045690095112   12.72393191169047   23.51401806421917
H         8.29056884831876   11.51552025350142   24.64228834444967
C         0.16245069144194   13.16121587296616   20.85641442514215
H        -0.39183673120872   12.93979658131994   19.95816895403676
C         0.38973579984496   14.46018371300990   21.38199393253133
C         1.08897194261494   14.33183797789850   22.61517282249651
H         1.34031464764444   15.13771431527770   23.28359160331841
C         1.27147984684516   12.95431830488869   22.88606820876878
C         1.59520466217255   12.29124180067762   24.15398396857940
C         2.15817756116976   13.15543626269349   25.23810868606184
H         2.48850345149886   12.53811797071669   26.06881482515094
H         1.38718894045695   13.83886161103045   25.59211432023817
H         2.98703373288260   13.75087203261740   24.85532337915630
C        -0.07215717376448   15.68910527559516   20.70873388010695
C         0.39513400444389   16.98581486070727   21.30224079221468
H        -0.01693175696595   17.81817388238337   20.73839042527765
H         1.48405743060357   17.02430927545731   21.25876096348066
H         0.09186821041655   17.06378641050695   22.34432361009668
C         2.48727453285363   11.11927942792979   18.28812271972027
C        -1.35212109666715   10.72816598763837   23.65921682965181
C        -0.13138875433048    8.17323485770563   22.71691278473743
C         2.89207223863730    9.83283938953491   18.64595871586996
H         3.74598701660575    9.70464758502405   19.29335002263749
C         1.40438281404915   11.27449111627017   17.42753470017526
H         1.08475003765850   12.26220908770688   17.12971357359704
C        -1.91226962081061   11.97904370381044   23.41026374469674
H        -1.93279606303803   12.37408557847898   22.40311409172358
C        -1.35283208069937   10.19670846549912   24.94300677810523
H        -0.92124575262134    9.22445635544933   25.12732112615076
C         1.81892140519003   14.53922373893130   17.72084866391418
H         1.10722307143323   14.34592762880139   18.51151456950494
C         1.52972522901825   15.49694390929923   16.76880689509948
H         0.59439110479842   16.03296071089582   16.82258321233140
C         3.02647230126196   13.84464912232393   17.67810171254592
C         5.13866528648793   12.19962020205861   18.71129819706919
C         5.58118980300935   11.18776692147648   17.86173991120321
H         4.87321029101332   10.58310947678480   17.31416200309442
C         0.89764237620603    7.99239700467915   23.64131179629537
H         1.39518430668960    8.85433860416020   24.06178340633294
C         1.14762559867189    8.88990930480161   17.29085975964341
H         0.63319575632719    8.02611712307641   16.89841904401152
C         3.94147971454762   14.12068217332186   16.66830394908969
H         4.88421397147082   13.59507427092984   16.63156332748661
C         0.74719567723949   10.16408939323636   16.92499425347807
H        -0.07291418534445   10.29828163190514   16.23576653887033
C         7.85980165093640   11.74608877764391   18.37965061349962
H         8.91564645320002   11.55770428944542   18.26133557977628
C         1.26058974211342    6.70895319118812   24.00631029739538
H         2.05390040102520    6.56039254855485   24.72268349921071
C        -3.20392850030606    9.60725925098111   21.33007515630046
H        -3.47296841954138    9.48840812561722   22.37118868965553
C         7.42343434868754   12.77916925191088   19.19308236530507
H         8.13637450546855   13.40840394194826   19.70281380099827
C         2.44456878353511   15.76950697003567   15.76352559786838
H         2.22398219322962   16.52335045202766   15.02353308655449
C         0.60749915355483    5.61575197026247   23.45582595173118
H         0.89401639631656    4.61650707269636   23.74546776548351
C         6.93750151831159   10.96329945394711   17.70501825366896
H         7.27389618619049   10.17367049390995   17.05029828362779
C        -0.78701328050355    7.07881159400562   22.16074168205146
H        -1.58162851005163    7.22851146934308   21.44317743798102
C         3.64480703583856   15.08071176188989   15.71556404910864
H         4.36088549785690   15.29490211985829   14.93671197363291
C         2.22139269268994    8.72867261394283   18.15286211485902
H         2.54641433390047    7.73726255619071   18.43060874593905
C        -3.81095764337130    9.72482780783077   19.01255107755641
H        -4.56880335392427    9.69634406992326   18.24506345484143
C        -2.44990163943629   12.70594965499400   24.45581637555858
H        -2.88011190438050   13.67803612088637   24.26769650084198
C        -2.43938902757893   12.18425225730831   25.74044847066575
H        -2.85737462601652   12.75521884500366   26.55524122088004
C        -1.90065252823806   10.93019454639905   25.98026253964731
H        -1.90201177511764   10.52350341177896   26.97975970787470
C        -2.48403296849384    9.92317211837777   18.66544080649417
H        -2.20826744491689   10.04772624649125   17.62999002033123
C        -1.50859212957640    9.96407008198427   19.64574504260487
H        -0.46881230122646   10.11426573326674   19.38642576709105
C        -0.41193206078916    5.80039362719657   22.53509530456810
H        -0.91743043416574    4.94778928169146   22.10847038278414
C        -4.17057820998386    9.56457759047880   20.34266126962244
H        -5.20456225052012    9.40926961148754   20.60913942960906

