115
CSD_code = TICFOD | q = 1 | S = 0 | Stoichiometry = C55H50ClO6OsP2(1+) | MND = 7
Os       26.13521777430047   -1.79989933071536    8.94708893512494
Cl       27.14199445505427   -0.21769543726974   10.25135499099285
P        21.92367153092267    0.00139248580322    7.66981440227965
P        25.20050065921887   -2.82106891276807   11.04148084399634
O        27.55732902535081   -6.48668829145006    8.62414810084795
O        25.95250904848721   -6.79527961005079    7.08490666344668
O        29.23746758370616   -4.02214682482251    8.66241020767987
O        28.10218746626481   -3.44313949051945   10.52266393958688
O        28.07198908668103   -1.90184368397088    6.89893675269907
O        26.57346612038455    2.59303832809467    7.53463487245107
C        24.75402748540951   -0.42787811579935    8.24067197360274
C        23.42785954164436   -0.92143474976716    7.99160798505192
C        23.40054415622118   -2.28196607872767    7.73915151293642
H        22.52317863402478   -2.80222877360424    7.37094150020893
C        24.63783688269557   -2.92121433910678    7.94055045716717
C        24.88354037565358   -4.23067848349545    7.59749191483394
H        24.17689246677059   -4.88192795241551    7.10404218911797
C        26.17898265717327   -4.65568330573269    7.98905352496286
C        26.86709851174375   -3.64184348231392    8.58891835064741
C        25.13620567422454    0.86442535322702    8.00770896913236
H        24.40814909543635    1.66535337815229    7.97892323192328
C        26.45068976884468    1.26818484957327    7.65692002105128
C        27.43432391407772    0.35302667642140    7.27721752696742
H        28.31816952065682    0.73455948662466    6.78541858090060
C        27.28592828806972   -1.01873974599003    7.47354774931930
C        28.20048124411952   -3.75699638087657    9.20745934625720
C        29.30853538458415   -3.52365278735631   11.27003288553196
H        29.02697578238761   -3.48621446192181   12.32005380477666
H        29.96138151089785   -2.68345368723682   11.02345039477417
H        29.82545230696641   -4.45659847465778   11.03707063047674
C        26.66225689254187   -6.05449805954130    7.94312647024037
C        26.32808077216441   -8.16395599835273    6.99559881410697
H        25.68600417957178   -8.60678386212935    6.23894670786037
H        26.18561590036643   -8.65738162150458    7.95903381849213
H        27.37754555859366   -8.25164360193406    6.70886965269172
C        29.17786213023290   -1.54689521292727    6.05606066089273
H        29.90267960255244   -0.96290741467685    6.63563330123426
H        28.81478325283997   -0.94324777141283    5.21532952629891
C        29.80147004476455   -2.84555988682007    5.57801074604709
H        30.71238931380489   -2.63982423035318    5.02390354634988
H        29.10580486835281   -3.38189409635198    4.93899813871288
H        30.03155176727546   -3.46950667526317    6.43766959058700
C        27.82727932971800    3.17806024297778    7.20614050636564
H        28.09141524486511    2.93153067235172    6.16937203467389
H        28.60347824778954    2.78921781933381    7.87576644834782
C        27.68808813273235    4.68230098731324    7.37104641513875
H        28.62943572858039    5.16638687519166    7.12979902481400
H        27.41879934201944    4.92057101034605    8.39614109230355
H        26.91338868259350    5.06107680148228    6.71009126510261
C        21.38343938688860   -0.42461098306120    5.99567171548821
C        20.03600820104799   -0.55112752923375    5.67612655335289
H        19.28275961409456   -0.43962043172111    6.44304457376021
C        19.66940600409354   -0.83029923829610    4.37102634829569
H        18.62523668590456   -0.93215261511506    4.11862631048668
C        20.63876013244977   -0.97862953493939    3.39175698599318
H        20.34685030273857   -1.19398840390591    2.37563667072598
C        21.98239363667138   -0.85655541168947    3.71346200766325
H        22.73513092438521   -0.97801009285739    2.94993276828921
C        22.36094844295404   -0.58139077116108    5.01427575346206
H        23.40573069906859   -0.49599863652645    5.28233750820855
C        22.06731084411933    1.79956081771931    7.76181347452372
C        22.08374418873059    2.39938888109613    9.02037627857834
H        22.00843174490849    1.77943076223126    9.90232197532433
C        22.20553036957044    3.77199454101776    9.12031733034682
H        22.22405934277867    4.24164284873200   10.09170932656635
C        22.30421096873345    4.54523507348340    7.97247542328221
H        22.40113245826970    5.61667668198848    8.05393769901013
C        22.27528528116398    3.94806190129973    6.72214577324836
H        22.34556270638840    4.55357267758045    5.83176252024848
C        22.15614118302632    2.57386568733331    6.60891994049808
H        22.13612770647839    2.10264677343087    5.63657758628096
C        20.61770187828302   -0.46276947680052    8.83374206785895
C        20.68528010710427   -1.65102306293553    9.55008038999272
H        21.56147846519571   -2.27575700238864    9.46759296000394
C        19.63759069495764   -2.01395566764687   10.37730240442977
H        19.68665092499565   -2.94148564081775   10.92584672608761
C        18.53016630128378   -1.19086471302798   10.49942299987396
H        17.71479050386842   -1.47613681468087   11.14588090297246
C        18.46690451793473    0.00177012705490    9.79486444751408
H        17.60605315853326    0.64498493911559    9.89447536802995
C        19.50435291962703    0.36796899582182    8.95786209539244
H        19.45830238906625    1.29746823946969    8.40613021479043
C        25.98225395176914   -2.90747781917194   12.70071961650476
C        26.91957221172092   -1.96219559724127   13.09878759470843
H        27.23738879868709   -1.19279012722989   12.41369921753693
C        27.45797996998039   -2.00369078330836   14.37426836862185
H        28.19108509424629   -1.26677910338422   14.66728986807710
C        27.05986569562213   -2.98188960105410   15.26777412019782
H        27.48274996793650   -3.01719959960773   16.26024491549608
C        26.11016512790086   -3.91493665918324   14.88296553857309
H        25.78783622635717   -4.67688991694052   15.57699103850112
C        25.56843092269907   -3.87766268109206   13.61226578033043
H        24.83086907086025   -4.61509158458349   13.33174660680139
C        24.71385034170348   -4.55762516567643   10.77992289204636
C        25.63175864582614   -5.57149254981048   11.04212255048872
H        26.59268950419650   -5.32833850572008   11.47128654701500
C        25.32077236754006   -6.88817702490820   10.75831243559872
H        26.04153024089783   -7.66268637953645   10.97145353239914
C        24.09759986105228   -7.20622489978443   10.19113324606780
H        23.85359854487148   -8.23400674399706    9.96787942951626
C        23.18645446929985   -6.20178343722746    9.90938328974029
H        22.23354825104157   -6.44626441294115    9.46320733661544
C        23.49487295026755   -4.88413074647292   10.19423055300558
H        22.78462397170795   -4.10167700035456    9.96665534943207
C        23.66914045037216   -1.99877643674294   11.62951071217925
C        22.68092423444237   -2.66717177317418   12.34551044585031
H        22.73664915275725   -3.73769103993655   12.47746842233723
C        21.62655903862207   -1.96321720364449   12.89770766701155
H        20.86785825490598   -2.48783558553818   13.45923221054637
C        21.55584017373644   -0.58663737879528   12.75985656727466
H        20.74148060547389   -0.03898009756464   13.20971455960914
C        22.54331838029645    0.08491681549339   12.06005961197380
H        22.51190671606329    1.16256454230845   11.98759985469616
C        23.59108478172185   -0.61614330840631   11.49000225940495
H        24.37135439684572   -0.08816525039060   10.95553274230567

