79
CSD_code = TICMID | q = 0 | S = 0 | Stoichiometry = C36H30CdN4O8 | MND = 6
Cd       -0.71337799209554    3.75702857515871    4.36535849030325
O         0.45139265797116   10.44820243765185    1.83579397131863
O        -1.53662736152514    8.54503180830800    3.05079229343622
O        -1.04885560005483    2.24703516868741    2.80638175636691
O        -2.74423815292001    3.41493084148746    3.56182510936363
N        -0.09090416107075    5.26243086168359    2.73275136239620
N         0.33443003224888    6.99963381168697    1.39913677514350
C         0.98445147487997    4.94553104570644    1.94587088090038
C         1.75353714285730    3.78615552891495    1.89324515069802
H         1.52461772096451    2.95554178251395    2.54396976957618
C         2.79064621584517    3.75895983211296    0.98572958365145
H         3.41132047470344    2.87876252594756    0.91354690009383
C         3.06539775072105    4.84300329100942    0.14632896959294
H         3.88766355668645    4.77302588417839   -0.55031126965711
C         2.31302712188195    5.99960742349106    0.18477023863941
H         2.53038128710234    6.83221871336239   -0.46754631740176
C         1.26965582104257    6.03807155779058    1.09845044026118
C         0.21316191477810    8.27692744750849    0.74060937205148
H         0.51427044329139    8.13895097213161   -0.30403593076944
H        -0.82790207808521    8.60583191804639    0.76769173022626
C         1.05778293906154    9.33192168009959    1.38481124388065
C         2.39970720164115    9.39933142398950    1.62216796027215
H         3.13264918545828    8.65886870573389    1.37584986343286
C         2.62445416358085   10.64351729235209    2.25956720579761
H         3.56332669317391   11.03672201316106    2.59057678652605
C         1.40395781077095   11.23501062122991    2.35983464138540
H         1.09519879891204   12.18118854808118    2.75812329634159
C        -0.45080246234212    6.48121557383160    2.39285946305103
C        -1.54547985407272    7.18741547776554    3.00259179417975
C        -2.67126668854108    6.70295218220763    3.62258424279742
H        -2.95351177669432    5.67223530021679    3.70647099848445
C        -3.37907927454307    7.83634889755555    4.07736030822400
H        -4.30979453428214    7.84277609973374    4.60562162726055
C        -2.64272860592711    8.92128306354502    3.70671506434630
H        -2.79473356023812    9.97408884631725    3.84095991088553
C        -2.26818188226606    2.50992448539371    2.83631486457860
C        -3.21408916109954    1.72426972926943    1.93882588185160
H        -3.41600540100565    2.31502978118008    1.04756332582324
H        -2.75371647340967    0.78505159268917    1.64839711463389
H        -4.15176147786384    1.54713660829552    2.45772621155949
O        -1.87816028749545   10.44816840583957    6.89472357070970
O         0.10992828254107    8.54505853562810    5.67988897612113
O        -0.37788760266289    2.24691879930152    5.92422302528994
O         1.31749361685570    3.41482801885326    5.16880802728149
N        -1.33583134929153    5.26246144204928    5.99792879244563
N        -1.76116194169616    6.99966696702240    7.33153814303016
C        -2.41117247713186    4.94555726488699    6.78482851699171
C        -3.18024227618935    3.78617271951513    6.83746713347505
H        -2.95132275152831    2.95556809467040    6.18673247623777
C        -4.21732978106509    3.75896470146919    7.74500688355699
H        -4.83798860943882    2.87875901565269    7.81721121730196
C        -4.49207554570732    4.84300813025332    8.58440963480715
H        -5.31432483588013    4.77302355187453    9.28106845448186
C        -3.73972522664057    5.99962548393636    8.54594653956103
H        -3.95709619960199    6.83223816186200    9.19825570192134
C        -2.69636841749160    6.03809735929435    7.63225164532197
C        -1.63985321768634    8.27695146722012    7.99006945172078
H        -1.94094323203408    8.13898612521463    9.03472504060468
H        -0.59878183596169    8.60582242133255    7.96296695093395
C        -2.48448706303171    9.33194401748789    7.34587910080678
C        -3.82643823556235    9.39931723065562    7.10861060496632
H        -4.55932121707952    8.65879505667795    7.35493302084362
C        -4.05123442071651   10.64337204978755    6.47100175335274
H        -4.99011473913753   11.03648946501460    6.13990968311385
C        -2.83080342552593   11.23507889745076    6.37101285671294
H        -2.52206193908563   12.18127165953447    5.97275029013414
C        -0.97593314717205    6.48124685949685    6.33781064065681
C         0.11875069498613    7.18744128324844    5.72808072861420
C         1.24453810302899    6.70295644309921    5.10810517673664
H         1.52676614312278    5.67223504394141    5.02423294547376
C         1.95237000046116    7.83633861611871    4.65332212960726
H         2.88308957521792    7.84274481311155    4.12506691098370
C         1.21603788485133    8.92128665019241    5.02396053651999
H         1.36806979868009    9.97408767639753    4.88971346722933
C         0.84141612105910    2.51000660105916    5.89453297863479
C         1.78732944034634    1.72419599924031    6.79185170550685
H         1.98919135816161    2.31486464560610    7.68318367817032
H         1.32698447399182    0.78492595981913    7.08215659173865
H         2.72502037205373    1.54715501616688    6.27295393691076

