73
CSD_code = TICMOJ | q = 0 | S = 0 | Stoichiometry = C32H24N6O10Zn | MND = 4
Zn       -2.06080147713288    6.41111223252370    3.97448738515505
O        -0.26837438409627    7.00438513296850    4.64148464719407
O        -1.12354812821949    7.91997343986806    2.93156912358189
O         0.76632416836316    8.58041921547012    3.65556855007639
O        -2.55186786856815    0.10141426321257    5.68376363888199
O        -4.12370550871959    4.32916290008841    3.21274068678182
N        -2.61061312515815    5.08496449897395    5.43415413719748
N        -3.17363673698341    3.22494404942282    6.52121862654560
N        -0.18808161508068    7.86092151859306    3.74101936174788
C        -1.61795547548760    6.29356324804047    7.39547017148082
H        -1.35963204048636    7.18513845069056    6.85221703711516
C        -1.36609183673652    6.14463122574734    8.74222546644265
H        -0.88928446154066    6.94722564045534    9.28330049266119
C        -1.71818858243651    4.98248471774332    9.43437126929352
H        -1.50743833319588    4.91578871095930   10.49111528133293
C        -2.33266194883417    3.92059451850807    8.80220539748503
H        -2.61193128156413    3.03107866457849    9.34465409518661
C        -2.58328428017123    4.05889631616198    7.44505087123545
C        -2.23564377771781    5.23146430611180    6.74430414435580
C        -3.16209807178791    3.89003939882581    5.33244515794797
C        -3.71659395856099    3.39885799764308    4.09781315552482
C        -3.89804402894092    2.14372907088327    3.56085783577741
H        -3.64107632082005    1.20314877229094    4.00050519965349
C        -4.45028841544666    2.34663303669091    2.27901647281100
H        -4.72516886262263    1.59061719280885    1.57305565399254
C        -4.56357409657297    3.69888173245050    2.12828278258733
H        -4.93030980704438    4.30511931288121    1.32408235057712
C        -3.73227272255877    1.92568943813358    6.82012344395067
H        -4.18145574337870    1.97976155964749    7.81618102006889
H        -4.50991528818204    1.70249400242344    6.08650899589079
C        -2.69563308936739    0.84580679432556    6.80316704830581
C        -1.79594873664010    0.44113266021225    7.74530568587719
H        -1.66940332915356    0.83996455267401    8.73008619803928
C        -1.05790571643893   -0.61790734021037    7.16277247334899
H        -0.26866765884342   -1.17915331026922    7.61834552010018
C        -1.56190709289870   -0.77741222861100    5.91125313144115
H        -1.31182285395664   -1.45532121158918    5.11979028725314
O        -3.85325085114924    7.00428508250416    3.30760006656480
O        -2.99798675968109    7.91978311869632    5.01751512679340
O        -4.88765222585718    8.58059956503641    4.29336140500747
O        -1.56996020741247    0.10159476784749    2.26548921040547
O         0.00192154649799    4.32914533779809    4.73639595590753
N        -1.51096529176597    5.08494385525092    2.51493567913671
N        -0.94811792789408    3.22485160753200    1.42793634123779
N        -3.93305611782258    7.86139113123275    4.20756106313502
C        -2.50324760361331    6.29371477082924    0.55356100127391
H        -2.76146404619432    7.18532739923830    1.09680988070946
C        -2.75495584271544    6.14485239633952   -0.79322965640509
H        -3.23143149067014    6.94759419718559   -1.33436945184909
C        -2.40296250190570    4.98265263876310   -1.48534401484253
H        -2.61350896881228    4.91604066918685   -2.54213088242897
C        -1.78875085833595    3.92064199412847   -0.85312334715634
H        -1.50949712006908    3.03110919724736   -1.39555136485494
C        -1.53828545752411    4.05888236971097    0.50406049062296
C        -1.88582556470196    5.23149647931782    1.20477348733287
C        -0.95965596065671    3.88995113601347    2.61670530952107
C        -0.40511858699464    3.39879972216432    3.85133049006250
C        -0.22351335570883    2.14368921334284    4.38826164919764
H        -0.48047219934646    1.20309915010613    3.94863627204973
C         0.32853470836191    2.34664964563981    5.67018122011528
H         0.60337091561757    1.59066322282633    6.37618987701608
C         0.44216545988897    3.69889011608725    5.82071794631526
H         0.80896237359135    4.30515556221600    6.62486953368061
C        -0.38945347035848    1.92562010558149    1.12904387975878
H         0.05962441044878    1.97965937167612    0.13294756773848
H         0.38807851599504    1.70234680970807    1.86273993113052
C        -1.42599273054631    0.84572787035019    1.14596550954641
C        -2.32550404432221    0.44094778320729    0.20372856992149
H        -2.45182123330668    0.83963778877976   -0.78113814725100
C        -3.06323268768769   -0.61839166704005    0.78610972586791
H        -3.85234273254728   -1.17974563664012    0.33046256856747
C        -2.55972633736920   -0.77739677222291    2.03790951360501
H        -2.81010326848770   -1.45495448102860    2.82957479558664

