147
CSD_code = TICNUR | q = 0 | S = 0 | Stoichiometry = C79H65AuN2 | MND = 2
Au       -6.77216572477830   14.61597448424406  -12.12739629029652
C        -5.43279155865978   13.74765056650903  -10.88103951438520
N        -5.57641222506860   13.03144082900048   -9.75056452318231
C        -4.35055543222298   12.75805997360091   -9.19718382437124
H        -4.24521821706985   12.20153591266266   -8.28992434122815
C        -3.42209089815531   13.31764415142486  -10.00683032638066
H        -2.35479464223077   13.34218292754870   -9.93950815844343
N        -4.10642737662534   13.91506536747323  -11.03250614959211
C        -6.81458355151133   12.50932795374286   -9.29261710727010
C        -7.78876064392183   13.35981955149404   -8.75946241448116
C        -8.98770994204787   12.80596585461963   -8.34364895368753
H        -9.74729970846965   13.44642309841306   -7.92198650789835
C        -9.24657319129282   11.44685675140364   -8.47061169207294
C        -8.27092013786000   10.62872122636850   -9.01424635314876
H        -8.46827439182100    9.57460313442583   -9.14663032507951
C        -7.04405697460223   11.13998354747113   -9.41789311822976
C        -7.52590139305188   14.84672994975442   -8.67252745809663
H        -7.24093193829732   15.17559625102399   -9.68392815809132
C       -10.56363866231382   10.89230355918039   -8.02440830741200
H       -10.63266064187524    9.82882905701147   -8.23808212544643
H       -11.37924529313874   11.40522194287291   -8.53127797879642
H       -10.69364414952855   11.04312342466815   -6.95326339890640
C        -5.97768341661119   10.21667307628047   -9.96451858917197
H        -5.30166077167068   10.79252202345902  -10.60974067002661
C        -3.53609859626551   14.69747679278232  -12.07164493228865
C        -3.50713243308410   14.20814795557176  -13.38133660896345
C        -2.93589287033166   14.99778081382716  -14.36426975671038
H        -2.88633797814870   14.62785397271946  -15.37718628410986
C        -2.44728244961046   16.26816215059879  -14.08534107295796
C        -2.53408198770896   16.74874594426560  -12.78953153033068
H        -2.21484148732941   17.75702969137590  -12.56993475608499
C        -3.05252250979850   15.96758555391680  -11.76526625056202
C        -4.12306971670974   12.86284244649852  -13.70047836044485
H        -5.12444901280909   12.85915000827455  -13.24388567940931
C        -1.83841864741636   17.08822994916994  -15.18030388938644
H        -0.89699286357517   16.64195118131820  -15.50175086022242
H        -1.64187194315944   18.10402990163190  -14.84624311696156
H        -2.49985034931772   17.12081266279372  -16.04441780812015
C        -3.09149609312778   16.48590499430565  -10.34502614063540
H        -3.85393322445601   15.92953382155300   -9.78500675503884
C        -6.38996875509424   15.19659373698580   -7.74076012111420
C        -5.77221531910728   16.43473528849717   -7.88319676440041
H        -6.08813706242540   17.10129370118010   -8.67370464933892
C        -4.76664089168919   16.82425322355380   -7.01850905311610
H        -4.29504474809257   17.78749913430741   -7.14670550336190
C        -4.36013810334109   15.97550022159413   -6.00092582192375
H        -3.57359287772801   16.27758882850016   -5.32523043404698
C        -4.96466188546306   14.73868616296527   -5.85681980097699
H        -4.65228208395715   14.07203721938938   -5.06569229262533
C        -5.97721738711365   14.35212534339625   -6.71887616798919
H        -6.45379720073232   13.38970376015726   -6.59050788654074
C        -8.76589220119484   15.63045182522827   -8.30248316238089
C        -9.58836046270345   16.11748413908584   -9.31015119296130
H        -9.32693505909573   15.93969811851515  -10.34333793249763
C       -10.73468731431923   16.82622747465460   -8.99897806445490
H       -11.36448993612307   17.20080404873652   -9.79240629456158
C       -11.07102785964012   17.05708764013482   -7.67587302596159
H       -11.96468667015364   17.61220446273981   -7.43126634170450
C       -10.25518471625637   16.57510771765005   -6.66637624293811
H       -10.51183907265828   16.75268951225451   -5.63195102133463
C        -9.10885004032315   15.86504038282166   -6.97694854115277
H        -8.47570847746136   15.49092062384758   -6.18487160021415
C        -5.14506223814070    9.63712034391109   -8.84042976296613
C        -3.76728754011267    9.53482543895685   -8.99410566309468
H        -3.30574907221099    9.88038352373505   -9.90779371152004
C        -2.98190213669831    8.99495954347857   -7.99133866649857
H        -1.91319649638938    8.92241919453957   -8.13037158418092
C        -3.56242021428723    8.55228916450734   -6.81520628347083
H        -2.95110511498663    8.13058559141023   -6.03124175828591
C        -4.93296253377754    8.65559224197405   -6.65061983118033
H        -5.39505614314119    8.31438477360663   -5.73569839529171
C        -5.71861648374415    9.19384159045664   -7.65485486661311
H        -6.78568768370941    9.27030345270889   -7.51062186923388
C        -6.59287373073893    9.15730261042021  -10.85713716954187
C        -6.41426575548035    7.79853390206278  -10.64863093419696
H        -5.83247783940966    7.45302055354661   -9.80652155486312
C        -6.97582629612194    6.87748788694528  -11.51818008513076
H        -6.82893489827984    5.82136120260396  -11.34427452024052
C        -7.71851206641993    7.30437200211805  -12.60408809313519
H        -8.15346013154638    6.58452883529132  -13.28138210636750
C        -7.90060110555728    8.66097569102683  -12.81893620174105
H        -8.47741787817558    9.00363872586840  -13.66532000294450
C        -7.34080312478063    9.57965914835592  -11.95200871981800
H        -7.48780010921350   10.63842071144616  -12.11834235723556
C        -3.35426083081954   11.70064758859025  -13.11925988331756
C        -2.03072330832424   11.80820964386143  -12.71462763054256
H        -1.52017177129435   12.75805748316058  -12.79368089316559
C        -1.35714599169639   10.70331214244614  -12.22094981939243
H        -0.32701111583274   10.80034256782984  -11.90944195273149
C        -1.99535976046226    9.47822812154229  -12.13322255926790
H        -1.46741525615579    8.61656039702769  -11.75197610704612
C        -3.31682709648881    9.36211924597577  -12.53570437844552
H        -3.82768256207729    8.41296768469492  -12.46364016861051
C        -3.99015699613218   10.46696670634281  -13.02146124519973
H        -5.01906547068056   10.37140487380010  -13.33937029543760
C        -4.33711582784322   12.68944598836038  -15.18894490730498
C        -5.46633163201334   13.24704233679712  -15.77764488590738
H        -6.18008423806250   13.78158891750356  -15.16586445510782
C        -5.67664988076651   13.12762531585093  -17.13908182966529
H        -6.55635825111147   13.56712993145734  -17.58519465848265
C        -4.76384764014447   12.44723162535783  -17.92772645625288
H        -4.92886898175680   12.35221021948620  -18.99089780428221
C        -3.63785022504473   11.88976501299781  -17.34728247377427
H        -2.92062754829945   11.35899592408325  -17.95659817262813
C        -3.42335418295527   12.01210895008391  -15.98526512615358
H        -2.53933619792391   11.57883584824228  -15.53922585446523
C        -1.76588027810300   16.24257543086346   -9.65697350129363
C        -0.55598975960612   16.58950148480809  -10.24687089293089
H        -0.54417891354879   17.04344214468755  -11.22557768006514
C         0.64055242874841   16.35764567662351   -9.59192263639079
H         1.57129706310268   16.63672314079347  -10.06416995059013
C         0.64881200200993   15.77231675721034   -8.33735914750420
H         1.58349841027052   15.59307692100195   -7.82692913224876
C        -0.55011606389612   15.41798698514229   -7.74398164060449
H        -0.55764400938376   14.95764251495467   -6.76668151081744
C        -1.74611472527585   15.64977473577415   -8.40016802836985
H        -2.67624918790683   15.36895307644705   -7.92719709931754
C        -3.54578134187884   17.93199759435564  -10.32649409033725
C        -4.77625618230959   18.23067756638585  -10.90385469846292
H        -5.35124784427240   17.44637272997747  -11.37796978910742
C        -5.26663931464236   19.52174630561763  -10.88884811759131
H        -6.22135336500053   19.73435503389366  -11.34430520730972
C        -4.52892310831282   20.53438514706725  -10.29764488909320
H        -4.90824990641454   21.54538814677318  -10.28686697810778
C        -3.30552341703160   20.24487979339510   -9.72059200908746
H        -2.72591777198896   21.02973052211459   -9.25586870319792
C        -2.81581900443783   18.94862797714329   -9.73113703739050
H        -1.86246767699099   18.73238824411262   -9.27038073874701
C        -7.92016660212169   15.57127938168893  -13.39848193175808
C        -8.46140790418054   15.80914312851595  -14.56150621857183
H        -8.76710185419030   15.51583480261476  -15.53724532072805
C        -8.49072260870536   16.98978109483226  -13.64242427088837
C        -7.53242925874930   18.08928125679379  -13.86746246106855
C        -6.21263865270293   17.81018477778740  -14.23432776741522
H        -5.90540698880395   16.77980396318776  -14.35754933317506
C        -5.29336681205037   18.81939899799739  -14.43395070141802
H        -4.27871395724114   18.56902645410518  -14.70782671463131
C        -5.66325612798665   20.14540731952000  -14.28491166207723
H        -4.94453100221132   20.93664422785550  -14.44436470831792
C        -6.96674729674072   20.44280666585336  -13.92700391110595
H        -7.27137480499888   21.47437179356761  -13.80877135729508
C        -7.88571909629622   19.43173672286164  -13.71498624270471
H        -8.89413935504183   19.69651481930448  -13.43531338308768
C        -9.81197365127256   17.34932611003151  -12.98191593747185
H       -10.36279279866105   16.43706578541069  -12.75432900720724
H        -9.65046886454251   17.89589172899159  -12.05151672177125
H       -10.43445586424510   17.96018535772897  -13.63816117328230

