140
CSD_code = TICNIF | q = 0 | S = 0 | Stoichiometry = C74H63AuN2 | MND = 2
Au        7.04147184260290    7.44941464201633   13.34822654174540
C         6.84453577419871    5.91073718788782   14.65119173031118
N         6.65899421990151    5.86344597764784   15.98316015789390
C         6.69527941616383    4.56520202190759   16.42728951993911
H         6.56979249803370    4.31059534901147   17.45860524652146
C         6.91173413156302    3.78645717748592   15.34170483417308
H         7.01226151257881    2.72566054650747   15.24698441595978
C         7.32513298911420    8.81392050335886   11.97083974979418
N         6.99689743324221    4.63047790902966   14.26560448399347
C         6.99670449186064    9.72827313784034   11.08757722922816
H         6.27758383976380   10.39322091697898   10.66915633879209
C         8.39986725681006    9.27128283497378   10.98383462053181
C         8.81949467875762    8.33156822990264    9.86487138332493
H         9.16207515477953    8.88744096554043    8.98991885066655
H         7.98265126966042    7.70060339258655    9.56654414494504
H         9.63428700682964    7.68152398516724   10.19151168992657
C         9.53285056533148   10.15842587418034   11.47229163825196
H         9.96788707414339   10.72639581389267   10.64796687461322
H        10.32733238347488    9.56151858010605   11.92623872300109
H         9.16761333768959   10.86293806065786   12.21817220399076
C         6.35036368814665    7.00368544696637   16.76955484995406
C         7.32761459258173    7.97498294768877   17.01302356946318
C         6.97417351049992    9.09051249273399   17.75238914572247
H         7.71642515109122    9.84772570877791   17.95406157321223
C         5.68041911559640    9.27093021314825   18.22639906264360
C         4.73038502789751    8.29804459691312   17.96584715042943
H         3.71379142677768    8.43736033669538   18.30475508227445
C         5.05091287707937    7.15132179741971   17.25041080512628
C         5.33525588624057   10.50437989804430   19.00163252027726
H         4.28365309175543   10.51236276736347   19.27635667755125
H         5.54847442327282   11.39212852864743   18.40842904895728
H         5.93517119879327   10.56154895082084   19.90920402816774
C         8.72139050010408    7.79461600486349   16.45464496366013
H         8.60616748642445    7.59616342183583   15.37795404628005
C         4.01060113799230    6.07830349259624   17.01717680517618
H         4.28332232196091    5.50605725642280   16.12103539758896
C         7.33135339587503    4.27480375740628   12.93242315718972
C         6.36326702430736    4.33879139755731   11.92621620186701
C         6.73759066282653    4.01715933131832   10.63225724235385
H         5.99955453892314    4.05116256019722    9.84532444625592
C         8.04869044863633    3.68745963250821   10.31603003415059
C         8.65253221253056    3.93770999563515   12.64320508052807
C         8.99616261470525    3.66476760933419   11.32677300828253
H        10.02865045604288    3.46133678933280   11.08259755981332
C         4.96663409859943    4.81779889599262   12.25762993628963
H         5.08858473695706    5.77612333087228   12.78639929268873
C         8.43813835764173    3.41531224605216    8.89668083334856
H         9.31406455265208    2.77292882932557    8.84661079625892
H         8.67973190337922    4.35505190159487    8.39952756939347
H         7.62053599797302    2.94873251156317    8.35216839005951
C         9.69660635539539    3.89491693116302   13.73744398734851
H         9.35340012772866    4.50910468946348   14.57982053529779
C         9.45739426546131    6.62223312432345   17.06071974393437
C         9.08058967764143    6.03945631145217   18.26296625548303
H         8.21348409560365    6.40919674967287   18.79310802983759
C         9.81455644476513    4.99175868062295   18.79411460299703
H         9.50922225691509    4.54614138321889   19.73014335969319
C        10.93713971229405    4.52138118220599   18.13549740844503
H        11.50982849459007    3.70605033662174   18.55223472136582
C        11.32239109086852    5.10076928697504   16.93669561331279
H        12.19262773392412    4.73724994065720   16.41028581126572
C        10.58561405094671    6.14131509314196   16.40366104608092
H        10.89089912129671    6.59364375932271   15.47031205716280
C         9.56292215267882    9.04612745310424   16.56790401962622
C         9.61762669221046    9.93389147790518   15.50138140452643
H         9.05908190852308    9.72199158139584   14.60045131995406
C        10.38202086462221   11.08384070862733   15.58605172716173
H        10.42007276844671   11.76393517739489   14.74800537553773
C        11.09912308822152   11.35916877365654   16.73785275039443
H        11.69764305379937   12.25587645830814   16.80394184971908
C        11.04836333897935   10.47850431814887   17.80515365826883
H        11.60628537729887   10.68747386723467   18.70661152298269
C        10.28529000880515    9.32757312595791   17.72100500300853
H        10.25049640696910    8.64101679953841   18.55534220850676
C         3.97734532456223    5.10814392668711   18.17910444760649
C         4.04537831675013    5.53977314636413   19.49829156140162
H         4.13652215160668    6.59298010534753   19.71666753298818
C         4.00087194735760    4.63000175718753   20.54023309695904
H         4.05369116192191    4.98253481592797   21.56004758633191
C         3.88836755658388    3.27498707692643   20.28039709022218
H         3.85243873862644    2.56649355063486   21.09462102559404
C         3.82400589454232    2.83546514419548   18.96935772069123
H         3.73900628295154    1.78036899378243   18.75396561939089
C         3.87037062823331    3.74512135554440   17.92799096976289
H         3.82229727300046    3.39325815092011   16.90745895272018
C         2.66067817043347    6.69672454402876   16.71415556802540
C         2.57083668313445    7.56941783465326   15.63389065300847
H         3.46056080924550    7.80476622218574   15.06537421150976
C         1.36109570754203    8.14107560112243   15.28959098296897
H         1.30642810611641    8.81543098277279   14.44776121577611
C         0.22166819708080    7.84607107720554   16.02065085524589
H        -0.72537943359940    8.29011049165110   15.75217675709959
C         0.30360603798985    6.97888344575232   17.09503680115029
H        -0.58066029201346    6.74358816512022   17.66948504162391
C         1.51661822488313    6.40532673800757   17.44064983904154
H         1.56746076210822    5.72629476698831   18.27939486650023
C         4.21254122980277    3.88496288825185   13.17318690985725
C         3.12242558212937    4.38282461736284   13.87965567872091
H         2.85319147648678    5.42517128269740   13.77915544189299
C         2.37368102550110    3.55645680775277   14.69634376341369
H         1.53171787411456    3.96093968548535   15.23940000642677
C         2.71091384737954    2.21787261740220   14.82324504475133
H         2.12789496798490    1.57041455604379   15.46168573724001
C         3.79765362570767    1.71566358010905   14.12851148414560
H         4.06469620344167    0.67278498854204   14.22230570720110
C         4.54241250056163    2.54276092365589   13.30445223703629
H         5.38137829345021    2.14010957726052   12.75361038359520
C         4.16684070954708    5.12503078722310   11.01017102302180
C         4.32605221878664    6.36154414658619   10.39469865057173
H         5.00824647745790    7.08600266402326   10.81855866940231
C         3.62442475013023    6.66466295617272    9.24235513022705
H         3.75806749300880    7.62790759508574    8.77288462077843
C         2.75349827139746    5.73801936536662    8.69348511370955
H         2.20340926553517    5.97534247088510    7.79473566562652
C         2.59121061976449    4.50533150334794    9.30155897393169
H         1.91477070849670    3.77709714101457    8.87776706144204
C         3.29586579890685    4.19852514634043   10.45285759238232
H         3.16765636216625    3.23250431650943   10.92030932453295
C         9.86458790075674    2.48303130346668   14.25384617675005
C        10.07337621191608    1.40927041971487   13.39622521986010
H        10.11719469837837    1.57198459499410   12.33050278218132
C        10.22610468998218    0.12779766789151   13.89477464069501
H        10.39080061902228   -0.69480645971911   13.21408780899054
C        10.16985106618997   -0.10251156537005   15.25884193583039
H        10.29019160141603   -1.10321525646091   15.64669470387177
C         9.95738477265229    0.95930229988338   16.12045505045645
H         9.90901999696204    0.79273604390747   17.18673683698384
C         9.80425389953854    2.24061698190283   15.62075470842252
H         9.64032101390932    3.06233528913181   16.30316231820578
C        10.98293521478815    4.53916775214092   13.26058741655480
C        12.21780465247438    3.91611750329301   13.34716051179318
H        12.29090466940293    2.91452393722317   13.74599900765928
C        13.36336475204859    4.57312692024479   12.92703824846515
H        14.32013892495351    4.07608430361646   12.99880663582773
C        13.28622136781082    5.85763254010273   12.42016534803621
H        14.18065850927911    6.36743803747266   12.09402485784614
C        12.05522196743450    6.48812380135969   12.33571803714353
H        11.98511989752527    7.49230727967262   11.94427132201010
C        10.91278572746996    5.83453435038601   12.75508620996987
H         9.95316189355720    6.33057177865278   12.68651094263229

