75
CSD_code = TICQAY | q = 1 | S = 0 | Stoichiometry = C39H30CoO3P2(1+) | MND = 5
Co       -2.99627475023641   11.32762525425846    1.86847319227596
O        -0.53804162417839   12.89229813782524    1.46990350835015
C        -1.49176294426014   12.28441897535818    1.62727211316833
O        -2.94803930276719    8.37798870012273    1.87674354210803
C        -2.96184005378703    9.51904924176381    1.87240562395974
O        -5.61122980032235   12.62898125343286    2.27448861426969
C        -4.59708169255389   12.13068044111281    2.11480753306440
P        -2.60554545363994   11.36271231489020    4.05432940426543
C        -0.83748052074076   11.28860067856654    4.44682193467365
C        -0.20631685658282   12.26670730903651    5.20732879441097
H        -0.77196505047681   13.09929058100500    5.60087031770519
C         1.15142249294852   12.16448718079042    5.45969163487661
H         1.64205580646179   12.92294595696016    6.05026109692973
C         1.87757652986263   11.09757557200371    4.95753453681663
H         2.93567370136085   11.02498542140096    5.15600132441888
C         1.24873937037369   10.12197140708336    4.19722730245537
H         1.81513329907315    9.28992316772738    3.80724597646176
C        -0.10371349904698   10.21789606000710    3.93596067682695
H        -0.60327844049205    9.46275065574708    3.34145026255815
C        -3.21372373373690   12.84646869675912    4.90074103575520
C        -3.78390392027196   12.76439784635270    6.16790181661617
H        -3.89283302282709   11.80506342685463    6.65345074161571
C        -4.21076517566479   13.91831629631491    6.80150196391094
H        -4.65480597474651   13.85432896146705    7.78306307777343
C        -4.07066587053080   15.14902333924046    6.18095302998463
H        -4.40769875584905   16.04492208675123    6.67894335429613
C        -3.50072139842356   15.23205444622742    4.91949082915456
H        -3.39061987955309   16.19118746013714    4.43668901607310
C        -3.07580427297814   14.08488647630433    4.27672201798268
H        -2.63405452978534   14.14338181101667    3.28936698170199
C        -3.34308256491165    9.98105096391353    4.96833569397478
C        -2.63613702323376    9.30099050531076    5.95584245425978
H        -1.61551813523508    9.57626218680472    6.18110200147201
C        -3.24964306672751    8.27248253496348    6.64964504037234
H        -2.70102204932201    7.74418704476557    7.41434595550119
C        -4.55972880247760    7.92213711540654    6.36648541442626
H        -5.03129780857378    7.11750822668526    6.90905605070924
C        -5.26656340639380    8.60271735093314    5.38647569552190
H        -6.28819844167902    8.33143127278738    5.16814681980834
C        -4.66118181132969    9.62811129969817    4.68565346749245
H        -5.20624862990537   10.16186278140176    3.91691235524176
P        -3.29505150717934   11.35682384693626   -0.33185353853611
C        -2.40203006899079   10.05755966131692   -1.22757744098011
C        -1.11728332098080    9.70905848275682   -0.81609877062200
H        -0.67804412283548   10.19494940341462    0.04667214895189
C        -0.40827850821053    8.74676803884194   -1.50992357499927
H         0.58772934632322    8.47893155676308   -1.19153426405084
C        -0.97807134925878    8.12509802062788   -2.61062620380506
H        -0.42558601407934    7.36969949441265   -3.14760566580572
C        -2.25579146434438    8.47009815024784   -3.02067756362260
H        -2.69846008516273    7.98623501708087   -3.87780491897780
C        -2.97204163237854    9.43517645186216   -2.33482424906306
H        -3.96819788375393    9.70474079012976   -2.65596327899678
C        -2.75248399672679   12.90896561445516   -1.09455776451440
C        -3.28239019957526   14.09940091876132   -0.59673163892964
H        -4.00213435962687   14.06729491595979    0.21217277186962
C        -2.89418306066869   15.30760834283745   -1.14112292766612
H        -3.30935066418857   16.22836741457408   -0.76026001487559
C        -1.96833987846006   15.33566484540382   -2.17421278100668
H        -1.66110494498879   16.28061301491821   -2.59482356435508
C        -1.43602738071246   14.15486579269868   -2.66429897715055
H        -0.71494214146651   14.17826065012531   -3.46694835781723
C        -1.82305001590928   12.93808150451652   -2.12847463730007
H        -1.40731763322844   12.01736201376992   -2.51244987189148
C        -5.02221246818241   11.16005409129385   -0.84852546924000
C        -5.59558014363022   11.97713693708691   -1.81815666424255
H        -5.01711502580068   12.76736876291794   -2.27529124775257
C        -6.91065924853142   11.76851403823673   -2.19649626147269
H        -7.35573252903878   12.40283397637736   -2.94776374262629
C        -7.65233598939415   10.75236083750675   -1.61667294625011
H        -8.67769162801107   10.59669387465295   -1.91433726676066
C        -7.08028725177422    9.93477078939595   -0.65337737549229
H        -7.65761449611326    9.14130541361273   -0.20380103726743
C        -5.76990183623900   10.13814724077518   -0.26608238381944
H        -5.31725143389271    9.50572965605657    0.48758727597954

