55
CSD_code = TICRUT | q = 0 | S = 0 | Stoichiometry = C20H30O2PtS2 | MND = 4
Pt        7.23503688183681   -1.51388731324391    3.75159318963745
S         6.47392829661182   -2.93414987293214    5.48526068813439
S         5.75849026342540   -0.01537016639223    4.83667423514097
O         5.01944693482764   -2.81950767811978    5.35247763102254
O         6.20518228142782   -0.10144713024710    6.22938097297106
C         7.58439465456512   -0.30899342348818    2.18531761508484
C         8.75765535761135    0.41522867326139    2.00520014673805
C         8.87229272046583    1.36902773132921    0.99728491659173
C         7.79555162949329    1.59106034188677    0.15516173609870
C         6.61302337480793    0.87505513986106    0.29954071383922
C         6.51872306174100   -0.06374969510882    1.31628584499574
C        10.15438453740321    2.13004865516932    0.82947147079098
C         5.46636566690605    1.12625977246207   -0.63624941502004
C         8.64436112081209   -2.78282942589078    3.09526856839080
C         9.74326884053005   -3.01217254737313    3.92614008098042
C        10.68423539943134   -3.98781004773987    3.63122033746796
C        10.51659560850534   -4.75720353596114    2.48596574665545
C         9.44021462386876   -4.55240875579454    1.63888465442655
C         8.51359620080537   -3.56097089183460    1.95018222889863
C        11.86851772215110   -4.22204918060791    4.52354786408109
C         9.27243428584427   -5.37068870527623    0.39251703966676
C         6.85401134642489   -4.70468835203632    5.19907870347643
C         6.83503062281626   -2.94106172198553    7.27703263937753
C         6.00391762704148    1.73589158553435    4.35267021362956
C         3.93192072113346    0.04365961021807    4.87925180412828
H         9.60713598081300    0.23246638811139    2.65163175929554
H         7.87308475088028    2.32889435290201   -0.63197716885232
H         5.59504319012610   -0.62496024733152    1.42727091011255
H        10.94367529452994    1.45969847924261    0.49149366861587
H        10.04352709017781    2.92848084536932    0.09991772835795
H        10.46958311403312    2.56190500352990    1.77763095035020
H         5.20315702686030    2.18335630174894   -0.64627211915956
H         5.74121159949902    0.84379633048304   -1.65185145285175
H         4.59145635895761    0.55027424071484   -0.34522673627910
H         9.87530374402140   -2.40967033659933    4.82046206818224
H        11.24421402213061   -5.52304258709558    2.25344035959506
H         7.68114748114696   -3.39265236249935    1.27800165196034
H        11.92323023345753   -5.26810094178953    4.82278797572629
H        12.79021683925277   -3.97996174592600    3.99562406389052
H        11.81283227079609   -3.60467564056019    5.41663889636551
H         8.25521548033639   -5.75026327719756    0.31742444330963
H         9.46239601953791   -4.75409323975060   -0.48532643520207
H         9.96288830826887   -6.21045097685330    0.37941193892280
H         6.25171501934190   -5.31768036145391    5.85907551588187
H         6.61561109301929   -4.92189438753718    4.16306238270432
H         7.91317007374131   -4.85862387789937    5.36797968950370
H         6.16892365865385   -3.64040439908291    7.76725007118523
H         7.87376027804180   -3.21649530627352    7.41220493927964
H         6.65721973206739   -1.93173624585983    7.63158746360903
H         7.07317657458992    1.92011447084981    4.34243189019930
H         5.60160059218001    1.87629130007136    3.35655259278313
H         5.51877543248431    2.38288986460915    5.07377682622245
H         3.62228991550276    0.76216500639220    5.62819988834338
H         3.57728938904652    0.31620636044765    3.89286294586010
H         3.59706965600944   -0.95297607646063    5.14537366488368

