42
CSD_code = TICSII | q = 0 | S = 0 | Stoichiometry = C19H19NOPtS | MND = 4
Pt        5.30120699588846    0.56056750691840    2.34306395750190
S         6.36201714050256    1.97518424743151    0.79317230376148
O         7.65236722649031    1.62677932881886    0.19425539987519
N         6.94351377899646   -0.76313976845470    2.69405795473919
C         3.67192598221945    1.69719397206273    2.10737413646498
C         2.83640566974819    1.48306777798639    1.00974400793192
C         1.76094245301583    2.31599003555096    0.74649964561023
C         1.49781991851870    3.39298251732324    1.57602702362701
C         2.30618471003121    3.61874205858314    2.67704081924038
C         3.37556297769362    2.77752059330486    2.94029716782647
C         4.50564520335916   -0.54971121703222    3.80938012785880
C         3.23814951001208   -0.45845119329390    4.38353990939126
C         2.84099936869952   -1.31219882113766    5.40059258350269
C         3.70554608864374   -2.28451448620944    5.87479458627421
C         4.96655014370030   -2.40483013020746    5.32632131631220
C         5.37625916751526   -1.55285898520334    4.30058113463551
C         6.69816831521963   -1.65242579336428    3.67660060284235
C         7.66823937956340   -2.59030978041337    4.03339854375803
C         8.88242399686978   -2.61050458022128    3.37393705230297
C         9.10921139947393   -1.69250134675136    2.36088115457995
C         8.10558648927402   -0.78732580450846    2.05756890888558
C         5.46978086438737    2.91923572630505   -0.49596010200343
C         6.69553448286968    3.40340988990762    1.88737371066981
H         3.02644212976634    0.64296363196307    0.34782313085396
H         1.12677688336019    2.12763711945060   -0.10912049460354
H         0.66310771800679    4.04787882022159    1.36998573291594
H         2.09934663953930    4.45190739692780    3.33515720394804
H         3.98206457438076    2.95676224921736    3.82209233278725
H         2.54284241802432    0.29008317101293    4.03245591402521
H         1.85195875089365   -1.21850993513440    5.82561750856070
H         3.39720609336734   -2.94889575762566    6.66889922674395
H         5.62832180197263   -3.16968740952532    5.70464941295151
H         7.47512718847965   -3.30033631974475    4.82044906283841
H         9.63911477958047   -3.33234806759698    3.64466600908204
H        10.03920494924058   -1.67322919578539    1.81600548089637
H         8.24883659383160   -0.05666384724283    1.27210832992807
H         6.11812773217836    3.71434827547445   -0.84444838336911
H         5.25007741568664    2.23828062258726   -1.31092320211941
H         4.55050781820260    3.30605438240861   -0.07339116369058
H         7.12596135048580    3.02360784238992    2.81159394001293
H         7.40129327785732    4.06431999275333    1.39651650533751
H         5.75744062243408    3.90642528085399    2.09232150731708

