42
CSD_code = TICVEJ | q = 1 | S = 0 | Stoichiometry = C17H21ClNORu(1+) | MND = 9
Ru        7.14465851935952    4.46053887120444    8.98216934620212
Cl        6.01531389236367    3.06587668254444    7.51174060309201
O         8.58021116929163    3.06861298331167    8.88205177641871
C        10.09482605646184    1.82215296790921    7.52422174995705
H        11.07790592722458    2.18692453288921    7.23319249559644
H         9.70278478940739    1.21429663176662    6.70930582577889
H        10.18036578402471    1.20449842833605    8.41455423735342
N         8.09076380991343    4.97557874645569    7.31197704411103
C         7.81395501809267    6.03215681963740    6.55336778811740
H         7.12893767320564    6.76004263814498    6.96871724501119
C         8.34505246655808    6.20182235012356    5.28787295663085
H         8.08668665085625    7.07562699504011    4.71245707266853
C         9.19212207951249    5.22724039354224    4.76929850789349
H         9.60284981809430    5.32793882474592    3.77752311794300
C         9.48820044654593    4.12442127119558    5.54665919170097
H        10.12950207739623    3.33977136257400    5.18002376232434
C         8.92689501131715    4.01994634723266    6.81980821890027
C         9.16452397905740    2.95590587704148    7.78886599678583
C         8.87321438052533    4.88971062730491   11.95710462522220
H         9.67143466126175    5.54322203006004   11.61273411027959
H         9.21636748828502    3.85760292908440   11.91914593772435
H         8.66071358943527    5.13074241209634   12.99996760766638
C         7.63000594145541    5.07205059742719   11.14737364361914
C         6.59265005547003    4.09911467262114   11.19687379186899
H         6.72212542886932    3.22001988085875   11.81858842488894
C         5.40048015194450    4.28954575037553   10.49956787269453
H         4.60745203155041    3.55223071345481   10.57808976594263
C         5.15938590218952    5.48461870477195    9.75189742117793
C         6.16911980303150    6.46106509572218    9.73795094129364
H         5.98324601864023    7.42039573837704    9.26855644659639
C         7.40194139796737    6.24938625601466   10.40445331747108
H         8.13777754013743    7.04623839552201   10.42954501531995
C         3.81960525079409    5.71920740899793    9.09823428862184
H         3.27410994424037    4.77030004076201    9.09100240659352
C         3.02394340367718    6.73272777385159    9.92933757210286
H         3.52258138606199    7.69907917054121    9.94642574732064
H         2.90544790653577    6.38578311229359   10.95318012462931
H         2.03715535500886    6.86329783722835    9.49490588688428
C         3.96965990927779    6.18594935926049    7.64875545889351
H         4.39026520223500    7.18735492797439    7.59276882911738
H         2.99414641010762    6.20686994662429    7.17188028876442
H         4.60531567261440    5.49333389508016    7.09695353882011

