53
CSD_code = TICXUB | q = 1 | S = 0 | Stoichiometry = C23H26ClN2Ru(1+) | MND = 9
Ru        1.18412418156268    2.97771772350287    9.49329427842940
Cl        1.15576487984443    5.08353909665160   10.48943814847741
N        -0.72691044220239    3.39938897485651    9.13787580812473
N         1.31636559850231    3.96125356879414    7.80818596846312
C        -1.74367775886005    3.09615670152131    9.94129441953667
H        -1.52221095952254    2.47864767170031   10.80163314204484
C        -3.02857387059699    3.55497661513636    9.72202890044240
H        -3.81788845577186    3.27971381496701   10.40206103191088
C        -3.28137739625079    4.38084689307001    8.62956476981531
H        -4.27476445182820    4.75695667393536    8.44534889365078
C        -2.23194156855437    4.72144835035682    7.80174260956063
H        -2.36878893796962    5.37696804978678    6.95697929349953
C        -0.95805732365689    4.22055635725258    8.08176596178274
C         0.23732884248628    4.50655832756488    7.34774345146083
H         0.23353390441286    5.15001633429523    6.47437385771225
C         2.57062672968226    4.18873291196744    7.14661333268210
H         3.29876925023547    4.50298483435846    7.90292665544570
H         2.47167074351157    4.99934357123208    6.41173001984316
C         3.06728369049165    2.94213906753159    6.44307304059086
C         4.42786575771237    2.66760534304219    6.39101063640366
H         5.12898551494610    3.34318714187239    6.85957614028861
C         4.88944016699070    1.54623087845946    5.72334081703465
H         5.94868236045947    1.34461925389084    5.68300917435431
C         3.99507738069461    0.68813088418556    5.10518167342319
H         4.35502793702598   -0.18537273738667    4.58465439346567
C         2.63801872375286    0.96071231475445    5.14815627566978
H         1.93795355506652    0.30183764360039    4.65714195046255
C         2.17429750468053    2.08472560682519    5.81163374422075
H         1.11303623586525    2.29584197667616    5.83466331712643
C         3.06962864036982    2.37212933324248   10.81669877076738
C         3.23638988173500    1.80564276928639    9.54666350739475
H         4.16819829807208    1.93442026767106    9.01048430244061
C         2.22713583505685    0.99914855110537    8.96892005135645
H         2.41316390437371    0.52454361710291    8.01174473886614
C         1.05219966615021    0.68133555687442    9.68256644056863
C         0.91618414893614    1.19843662833545   11.00145148090290
H         0.08337600863222    0.87112746416064   11.61509746052899
C         1.87815707756757    2.05054799182703   11.53779325755113
H         1.77096435578334    2.41035946592455   12.55617249072329
C         0.06169597842331   -0.30329448268529    9.14066823030451
H         0.09149095570311   -0.33036382709544    8.05368770571851
H        -0.95158296336949   -0.06928234788300    9.46168672935879
H         0.30633959191062   -1.30048356576748    9.51019750280551
C         4.16478028330691    3.16564732828157   11.48575927386179
H         3.74216749454663    3.65241793575530   12.37075367229986
C         5.26439748137641    2.19728857839374   11.93913456957953
H         4.86095142207216    1.43522790433874   12.60250418177503
H         6.03411163555487    2.74556940704295   12.47452943634364
H         5.72324715012308    1.70492183302184   11.08446806593822
C         4.73085218532465    4.25653422652644   10.57655315215318
H         5.24631157372332    3.83295914585198    9.71745353341389
H         5.44428653676381    4.85796332122915   11.13270814906864
H         3.92809106515700    4.91003905306097   10.23776159036120

