57
CSD_code = TICXUA | q = 0 | S = 0 | Stoichiometry = C30H18CdN2O6 | MND = 6
Cd        2.30023378225526    0.52916742389659   12.33613640776813
O         4.16230939797584    0.37846402714892   11.09529484568357
O         1.72007778254395   -0.75404501655838   10.80490406775759
O         3.48025962689418   -3.48668760388770    7.42783379250722
N         3.22742460660028    2.36828839078067   13.29922967126301
C         4.03872003587137   -0.57125237225803   10.31456121079693
C         2.69026907633255   -1.19266973304601   10.09505931475563
C         2.55781521104240   -2.15211602175774    9.11770447991624
H         1.57794988672813   -2.57155232051339    8.93740270559963
C         3.62832733208448   -2.64743397671507    8.31128825908792
C         6.08467706700440   -2.57294427917674    7.89068402198741
H         5.91681627369683   -3.34049881305443    7.14974192776002
C         7.35496107498337   -2.07813543106411    8.14004017977427
H         8.20054048672844   -2.46281186589589    7.58897216054429
C         7.54213746848288   -1.09220132881308    9.09696986582666
H         8.53250049679651   -0.70804292410744    9.29231728707397
C         6.45855377092467   -0.60082748589774    9.80141501720235
H         6.58158355270400    0.16619464867498   10.55193028840291
C         5.17653522830726   -1.09534167897282    9.55851270496324
C         4.98978363114136   -2.09310422142996    8.59416938977996
C         2.89358700756561    3.54953397838686   12.77565680079747
C         3.63838736759944    4.69761743049863   13.04156435008111
H         3.38154302569417    5.64201901871775   12.58878900726330
C         4.73862278493174    4.60163911586219   13.87808319092213
H         5.33340274384630    5.47633958343795   14.09610190330347
C         5.06552789162551    3.37019827882335   14.42257529586248
H         5.91370213691796    3.25850148415300   15.07872588592650
C         4.27760542033612    2.27466338806510   14.09533847725415
H         4.48683540819829    1.28423640154421   14.48030381416217
N         1.37280195012765    2.36827427215410   11.37239406743046
C         1.70668296654078    3.54953162919443   11.89589676865358
C         0.96190875961892    4.69763718809394   11.63000150497474
H         1.21887557126782    5.64204195625166   12.08270531244115
C        -0.13844969103635    4.60165601781597   10.79364500314917
H        -0.73326768707219    5.47634868231015   10.57571262991396
C        -0.46539886255830    3.37019678535636   10.24921170651596
H        -1.31367949567559    3.25845591946980    9.59320855172625
C         0.32258359233631    2.27466921547333   10.57636082636044
H         0.11331813827952    1.28426507535080   10.19135600451725
O         0.43785459170412    0.37825687786311   13.57626542008002
O         2.88007229052941   -0.75406857532650   13.86718817543549
O         1.11968692512165   -3.48670597341203   17.24446974639679
C         0.56120521237011   -0.57176334326045   14.35662462415805
C         1.90980760210145   -1.19245468986408   14.57709233687420
C         2.04227929512616   -2.15185772705516   15.55451436341964
H         3.02235543053204   -2.57122595658058   15.73481779246702
C         0.97169875597426   -2.64748281831517   16.36055353128540
C        -1.48475430992503   -2.57328062261451   16.78068986403283
H        -1.31699226637771   -3.34095172533803   17.52151821630736
C        -2.75496801962749   -2.07817437874012   16.53156970227961
H        -3.60053292950144   -2.46255702068584   17.08286831806815
C        -2.94205876704103   -1.09207173711194   15.57475261145530
H        -3.93236240391257   -0.70783135674567   15.37944185706723
C        -1.85849842532387   -0.60093640618620   14.87014332093061
H        -1.98157646252547    0.16536863353621   14.11892700966048
C        -0.57653746423651   -1.09558045624671   15.11292929105378
C        -0.38984387264452   -2.09325756227576   16.07733511929780

