81
CSD_code = TICZOV | q = 0 | S = 0 | Stoichiometry = C30H44N2PtS2Si2 | MND = 4
Pt        0.65555968241762    4.48301100943119    2.88510214263318
S         2.63182476828871    3.47022266758995    3.32063366178982
S         0.91706409764687    5.63423246780471    4.81574586628139
C         3.18487097804768    4.12282149279066    4.84265322858383
C         2.42334186229649    5.08464384178089    5.50658204375486
C         2.84277277189851    5.62318836794551    6.72767149711419
C         4.04247860620440    5.15972223018687    7.24567327441696
H         4.39500126462839    5.55416095762973    8.18670233189033
C         4.79883010102088    4.20358264136291    6.58630781597978
H         5.72695548573098    3.87034806849718    7.02555118421692
C         4.39388415111233    3.66299496246542    5.37544227277849
Si        5.42261405739950    2.35556521269713    4.46663545899771
C         4.45688966599890    0.71653011031107    4.28740625156754
H         3.54374946906184    0.85356007518839    3.71910017536589
H         4.18243882701627    0.31829453903246    5.26004482761372
H         5.05645423214149   -0.03396502517176    3.78071706893883
C         6.98436087007086    1.97786096185596    5.49594770860932
H         7.58845123435745    1.22795415548752    4.99608270622780
H         6.73611871731748    1.59272806091999    6.47941326491047
H         7.60360604027902    2.85882176115283    5.62840348155342
C         6.00721256966601    3.00273544447982    2.76652241478249
H         6.61346949326814    2.26063512849327    2.25546306079428
H         6.60861020593750    3.90041423332199    2.87788846040664
H         5.16786156243969    3.24716615202023    2.12509249900578
Si        1.80167850665301    6.92982631876803    7.62345570253812
C         1.63254454094875    8.51580424636653    6.57129011278413
H         1.14472360124382    8.31368093820113    5.62427655260281
H         2.60669528724975    8.94480950172194    6.35475226769049
H         1.04927919151170    9.26830285132619    7.09380189817125
C         0.08811235022755    6.23525375085967    8.10564208172102
H        -0.49612950114318    6.97892160498693    8.63959510917235
H         0.18760756922602    5.36758124336155    8.75150320770777
H        -0.47721208109948    5.93117766094873    7.23181167202662
C         2.68779254472662    7.41769037289814    9.24147916610336
H         3.66970414910009    7.83885516752297    9.05281506536576
H         2.81009918184368    6.56919890884192    9.90648869766325
H         2.10948216016456    8.16638749997114    9.77266147083849
N         0.29554552549445    3.51704372431835    1.14701939273641
C         1.07757201550711    2.60162215983255    0.56841664335836
H         1.99836250344150    2.36659790936851    1.08587979779804
C         0.75595158628865    1.97953944966655   -0.61273431564384
H         1.43911964520444    1.25133987075424   -1.01691506360746
C        -0.44290151852842    2.29248767455507   -1.27298131858895
C        -1.24489666633213    3.24208261444668   -0.66906445233151
H        -2.17763850195675    3.53181639678542   -1.11924334670530
C        -0.86931726864736    3.84674882356870    0.53449159996264
C        -1.65972710601110    4.84905849064037    1.22356787126572
C        -2.88885714222773    5.33184925842144    0.76379488106215
H        -3.28129296990436    4.94018180629584   -0.15772966152881
C        -3.59016724850987    6.29021598009032    1.47043126064188
C        -2.99928472908037    6.74196940115543    2.66117932470356
H        -3.47952129274709    7.48861157915369    3.27129726050639
C        -1.79054289495719    6.23409888763225    3.06924253973346
H        -1.32718967233694    6.57467506176983    3.98584707980339
N        -1.11907881481971    5.30719141676407    2.38053691651024
C        -0.79750885084349    1.60058639490575   -2.57429477820281
C        -2.14012745981417    2.06848521989144   -3.14149518555144
H        -2.95330901460379    1.85589852690671   -2.45100380327838
H        -2.34349889318989    1.53930386368666   -4.06966695824742
H        -2.12355781983946    3.13369325545119   -3.36128263472134
C        -0.87732459076328    0.08815312318509   -2.32266869410633
H         0.07275061214384   -0.30727184069358   -1.97511227704873
H        -1.14481373681190   -0.42740482206599   -3.24201788528530
H        -1.63382666688355   -0.13060749084686   -1.57191142350005
C         0.29744542972665    1.90062598503020   -3.60772514129089
H         0.37582550628981    2.97288118782728   -3.77482727610355
H         0.05643350542746    1.42105706535638   -4.55350177695980
H         1.26561302558864    1.53496304219384   -3.27794029282522
C        -4.92530527244591    6.85173895045244    1.02329010832727
C        -5.41018883359152    6.23704343432624   -0.29210816645214
H        -4.71100421174001    6.43841457723890   -1.10070788682162
H        -6.36844513872211    6.67441976336133   -0.56287348409222
H        -5.54902880998187    5.16250981340606   -0.19539147760338
C        -4.78217201098793    8.36771057100822    0.82746587939583
H        -4.49496625290064    8.86191088729839    1.75109305838100
H        -5.72760809452350    8.78986362332387    0.49506610699663
H        -4.02545890349183    8.58185958838885    0.07559517208642
C        -5.97128274381554    6.56223663825279    2.10919631449500
H        -6.05869722640607    5.49027285799857    2.27357021508657
H        -6.94170491816916    6.94397997068765    1.80080892691981
H        -5.70527229500518    7.03152572500418    3.05195124908908

