119
CSD_code = TIDBAK | q = 0 | S = 0 | Stoichiometry = C58H56P2PtS2 | MND = 4
Pt        2.46248492314617   12.21992988634241    5.93492730571917
S         2.13791951041541   10.74652287820660    4.18807442813487
C         3.35972380382954    9.50593284011524    4.41713701287613
S         4.25157830547415   10.91976827071481    6.55694684005586
C         4.28670667645483    9.60366377994849    5.39362122117754
C         5.42049079709317    8.69550516014930    5.56628027270539
C         6.14722330092655    8.22598584095113    4.47537243620619
H         5.87623416291590    8.54237406579611    3.47860716112688
C         7.21223136022954    7.36405086160793    4.65081088716767
H         7.73700444000977    7.02634891980029    3.77152294153796
C         7.60663257370843    6.94497581163531    5.91668159321990
C         6.89544268273327    7.44475678048724    7.00470464418274
H         7.17117641079170    7.15987150379976    8.00986417048686
C         5.82873980727298    8.30305029982226    6.83857376091318
H         5.29393705387712    8.67235047380709    7.70226631891131
C         3.24004401862562    8.38227857746366    3.48799560428259
C         2.94068275564312    8.59615340023255    2.14705974464242
H         2.80268664686981    9.60789239483906    1.79174390847563
C         2.82736208507171    7.53823002613555    1.26432408988032
H         2.60253307840652    7.76211739590871    0.23365417806791
C         2.99984128860749    6.22562336076892    1.68461667288355
C         3.27207642832219    6.01743862808087    3.03599379182882
H         3.39598833493738    5.01317198864042    3.41447070382609
C         3.38455450158673    7.06568482661763    3.92341238365442
H         3.58392608172782    6.86794037814927    4.96662656386413
C         8.76452380129086    5.98715662648001    6.15188140153468
C         9.42433447091454    5.52696408663773    4.84913377358631
H         9.84102033367531    6.37002040354566    4.30284698097909
H         8.71114778538412    5.00803075659467    4.21272147112473
H        10.23671642060319    4.83879131347438    5.07615323325322
C         8.24486567962176    4.74338699380291    6.88715531408064
H         9.05611960507894    4.03637385676173    7.05069619013184
H         7.47326386668100    4.25379365766529    6.29637811626614
H         7.82002119353310    5.00331139590500    7.85277453315919
C         9.83058439068995    6.68645507775546    7.00708317151203
H        10.19033258995968    7.58013425449850    6.50115863994994
H        10.67465022954483    6.02014566610893    7.17546431716533
H         9.43066200471112    6.98130918468643    7.97336337046931
C         2.90073837253316    5.03205165596912    0.74724977973247
C         4.23665659606782    4.27552155514918    0.75940273356889
H         5.04151868024410    4.93044603904305    0.43163632879116
H         4.19132085508478    3.41997371780916    0.08800347681706
H         4.47718082692504    3.91520669549932    1.75582451197837
C         1.77552082183135    4.10495145170677    1.22823106433983
H         1.97362673755383    3.72883234582644    2.22806925787149
H         1.67640119873536    3.25386180076736    0.55699537585341
H         0.82953637376332    4.64237287682887    1.24806728509407
C         2.59687311610991    5.43870288727989   -0.69736906518692
H         1.64102331911760    5.95320652589097   -0.76524426179390
H         2.54560968515535    4.54894644932581   -1.32245299843436
H         3.37750587908096    6.08370746184366   -1.09422584738156
P         0.53068458517605   13.29791302923974    5.23232613307223
C        -0.95868624963935   12.44628254611901    5.83959004731228
C        -2.22289379878476   13.02950228867076    5.82437615034890
H        -2.34884053253153   14.03786328935411    5.45391642836487
C        -3.31343659584671   12.31861086042097    6.29158737686161
H        -4.29396133962997   12.77241290496632    6.27932774578568
C        -3.15328315514795   11.02849206255974    6.77321932402625
H        -4.00974434582913   10.48021097968857    7.13736511791143
C        -1.89761574592010   10.44377487625333    6.78805369785389
H        -1.77119026083720    9.43851312212165    7.16171426154706
C        -0.80413555982840   11.15136448020585    6.32362611458439
H         0.18854461139136   10.70697190942145    6.32761026703033
C         0.15182256576856   15.04315814172529    5.61198807375944
C        -0.35337887295677   15.37303976883802    6.86731064653216
H        -0.54498966907918   14.59205051628951    7.58943701536811
C        -0.62408353824411   16.68914843346637    7.18783641047260
H        -1.02411397625420   16.93145081110335    8.16181264768015
C        -0.38582102247695   17.69300929064605    6.26331567119447
H        -0.60238002852126   18.72126476322364    6.51221578586865
C         0.13101590332032   17.37332599406396    5.01947018607532
H         0.32079113657526   18.15283228252296    4.29625485235070
C         0.40259901582370   16.05692867641086    4.69392781488351
H         0.80018696003717   15.81341869674189    3.71919585895392
C         0.34656385955591   13.25955719144448    3.42109577488469
C         1.48752801250732   13.54974073858746    2.67597216454829
H         2.41306315036271   13.76716173171403    3.19665095279138
C         1.44413001007771   13.52745747959199    1.29573606749884
H         2.33336416465636   13.74684050549623    0.72282175499267
C         0.26150323630176   13.20575177998563    0.64870316618134
H         0.22688751270472   13.17624768390738   -0.43050353213890
C        -0.87194915918857   12.90785926461039    1.38563533353156
H        -1.79030738243919   12.64513198354342    0.88083999427214
C        -0.83477202041487   12.93335241243086    2.76945413016026
H        -1.71972013127451   12.68386218204906    3.33676531841115
P         3.04133370586934   13.69194940637560    7.61514805665116
C         3.14441240602822   15.37044391402560    6.91996957800738
C         2.72083309675611   16.53669121733244    7.54023965598482
H         2.26798177310354   16.49999758140573    8.51995035397138
C         2.86670955550257   17.75052863245990    6.89031848463308
H         2.53594368530652   18.65769758918442    7.37452189433627
C         3.43068548875332   17.80791550155338    5.62748863956158
H         3.54233946486176   18.75976120890111    5.12965358532208
C         3.84443314930622   16.64394617057206    4.99837604636185
H         4.27813834275346   16.68619564951947    4.00990903907706
C         3.69685226020119   15.43140713672734    5.64166858353066
H         4.00888250438673   14.50287899919209    5.16832314666059
C         1.98472839311551   13.81838644757845    9.09112678989810
C         2.35330411020495   14.57747960570677   10.19800041335526
H         3.29454878567315   15.11051788677983   10.19559621214771
C         1.52291918084886   14.62836086677540   11.30252140253023
H         1.80576603272459   15.22089842219932   12.16052624604477
C         0.33388074194201   13.91486971875631   11.31650372150964
H        -0.30823245124263   13.95719509547719   12.18391563898909
C        -0.02176887843317   13.13477617531939   10.22853790059997
H        -0.93831079192653   12.56292950030810   10.24451414448785
C         0.80531508695386   13.08466184642889    9.12085145516858
H         0.55680507181237   12.46306980015340    8.26696415678783
C         4.66819133191613   13.47595819511520    8.39699204900896
C         5.78307879736303   14.23083141532490    8.05480201543191
H         5.69694379099426   15.02907416242710    7.33082987254332
C         7.00560290638140   13.95726190850342    8.64275852478330
H         7.87073573461314   14.54695046586777    8.37603048588467
C         7.12477343327346   12.92830374625476    9.56134358261063
H         8.08357991807637   12.71330715705762   10.00960146722590
C         6.01553359432812   12.16943994167790    9.89983417259382
H         6.10894946726299   11.36117981390475   10.61013131544523
C         4.79156691468568   12.43999093345452    9.32127617104153
H         3.92208619247345   11.84586812422711    9.56923965479344

