46
CSD_code = TIDCAL | q = 0 | S = 0 | Stoichiometry = C14H22ClFeN5O3 | MND = 6
Fe        6.51647148737436    2.40177458433869    2.25046148260036
Cl        7.39666448435108    2.14004836217457    0.29384685842929
N         4.81404054875758    1.97628486423984    1.57453000391267
O         5.33478384993071   -1.42215407115426    2.40333929105142
O         5.57891630330212    3.07592823294957    4.12737866764001
H         5.02700058162787    3.79494096958247    3.76664806344985
C         4.72449731290766    2.19810519464782    4.83921205850428
H         3.86713464730485    1.89500879151133    4.23618574971073
H         5.30128172179767    1.31009301226606    5.08545485312282
H         4.37315854005369    2.67645038605636    5.75815323337683
C         3.93124957742063    2.86175093201716    1.10223697033185
N         6.48886301999745    0.55445605585127    2.64711584414436
O         4.34141394258600    4.84425179628674    2.35462232110405
C         2.70002233863134    2.50756638075316    0.58850000429308
H         2.02590686875073    3.26538341382359    0.22134885732115
N         8.38137928650038    2.29838329890932    3.09064833461986
H         8.98565189185659    2.06686165084305    2.29935822835152
C         2.36413316659225    1.15592301984859    0.55997880198885
H         1.41804661723014    0.83854913892273    0.14986675125340
N         7.39880292177990    4.74811389865915    2.07520666485319
H         6.81466668130656    5.24505336515660    2.74548842882037
C         3.25824282814721    0.23482559900675    1.08184450605330
H         3.04622585778345   -0.82213533743102    1.11361988429764
C         4.47179560870376    0.67259863669045    1.58789261241581
N         5.15433185373889    4.71854657392729    0.23571594791116
H         5.43057972792710    4.04801400498005   -0.47003968213669
C         5.48692012465671   -0.21168450291273    2.24153116995276
C         7.66870969367263    0.00124914723946    3.26114402235868
H         8.34013819156096   -0.39430305364762    2.48674134015032
H         7.40471910721165   -0.82207345250767    3.93403999984586
C         8.34917325369518    1.15275263611989    4.00232598361219
H         7.74790203561797    1.43764404401699    4.86835315827992
H         9.35568762387897    0.87405677560029    4.34262427370195
C         8.81756692529287    3.54828440039052    3.68469942026733
H         8.12923793392438    3.79176512531995    4.49888780543304
H         9.83822785650345    3.48640834062414    4.09023001739350
C         8.75455972371535    4.62422279817082    2.60603848075079
H         9.39664317015119    4.32063851308249    1.77434628308686
H         9.12910359404647    5.58153654786503    2.99980287389585
C         7.41032142438720    5.47560289491788    0.80798645219367
H         7.83866680720713    4.79944345986633    0.06169019722529
H         8.02848080834434    6.38450499159109    0.87239576741119
C         6.00205443647104    5.87865985109518    0.37799105478722
H         6.04419514184923    6.41011658945920   -0.57482443742762
H         5.53964864660525    6.52186026924898    1.13187423791136
C         4.47418183484022    4.24559186960672    1.28990716175430

