61
CSD_code = TIDCUH | q = 1 | S = 0 | Stoichiometry = C26H30IrN4(1+) | MND = 6
Ir       12.58949168943249    0.02597444618825    7.02811810756972
N        10.89063564763112    2.21069344208169    8.29717661666198
N        12.10485907819692    3.03634285139066    6.69286653468386
N        12.16178686142746    1.19238593825602    4.41545504237202
N        10.50824796065168   -0.19609007961672    4.65473715328756
C        11.81457113294235    1.88882197755919    7.36427871093303
C        11.39458901741924    4.09457917213850    7.23113491176423
C        10.61040514851851    3.55893937000275    8.26199892972427
C         9.76571373403708    4.35566073574164    9.02006585797757
H         9.16475467439337    3.94606641355077    9.81539843016532
C         9.73549061366118    5.70321415241269    8.71614666974075
H         9.09558853401703    6.35884636511289    9.28476026607932
C        10.51736944764522    6.23819396229681    7.69360459803911
H        10.46621416046093    7.29657494113354    7.49365486096672
C        11.35959603274210    5.44865758319064    6.93307277126874
H        11.96556773047780    5.87824360320326    6.15190271474918
C        12.95648332442796    3.24021996396279    5.53806619864820
H        13.88334359751893    3.73463526708071    5.85159207653132
H        12.41808435142026    3.91986219233799    4.86830010380841
C        13.32272236546584    1.96852696168491    4.76449606629841
H        13.84945242173974    2.26139710113977    3.85395621652955
H        13.98024614111485    1.33812146995439    5.36956013733439
C        11.63036700597824    0.25775790670433    5.24666371483557
C        10.31940614863490    0.43117105276181    3.43899486519285
C        11.38325428170976    1.33616533664167    3.28813655783224
C        11.48898419355542    2.13940645526578    2.16303777787118
H        12.30058347095129    2.83813687094776    2.03667554592735
C        10.50731003549849    2.00420225134376    1.19918239025966
H        10.55659517410413    2.61048106090932    0.30874363704897
C         9.45496126038619    1.10221682371183    1.34721817796890
H         8.71399309349630    1.02892744716241    0.56733619429647
C         9.33990086287057    0.29996437725102    2.46698362362417
H         8.52623235143579   -0.39855489180102    2.57493346793487
C        10.21546923369568    1.28668004239036    9.16837725302925
H        10.50333762208988    0.27163089765906    8.89722075950320
H         9.13604578294767    1.39825793502556    9.05583703334369
H        10.47866188545812    1.47787149285861   10.21013220707487
C         9.60585744188565   -1.17190470781492    5.20217694503709
H         9.90222537138248   -1.38769117613539    6.22704784172347
H         9.62996949944935   -2.09093439712938    4.61310586715896
H         8.58783931766531   -0.77990047543852    5.19659741580873
C        14.28776876003907    0.39290786149496    8.32377660819779
H        14.36276201747261    1.46202883393553    8.51727629172752
C        13.36804740499823   -0.33024143703340    9.06166773494795
H        12.77108454321844    0.22717222404829    9.77757643593551
C        13.51807147557951   -1.79813005312926    9.38917691486095
H        13.08294767185069   -1.98822245962448   10.37120492413903
H        14.57773056651904   -2.04310163510066    9.45704217663382
C        12.82015236312182   -2.70660980437442    8.36060822927188
H        13.30668511676625   -3.68630768494953    8.33921274454107
H        11.78721744139069   -2.87205443798974    8.67419572503045
C        12.80013697118140   -2.13583705199264    6.96446631754662
H        12.01465075791809   -2.56026200447217    6.34249006132987
C        13.88861159785190   -1.58127654621320    6.31359871708556
H        13.86622978464935   -1.57300096636803    5.22573014639223
C        15.27394279178993   -1.49642810571839    6.91001585562104
H        16.01018423325513   -1.57447309138917    6.10872921396431
H        15.42867989954781   -2.35023222671029    7.56922575172922
C        15.52077016502701   -0.18012935049647    7.67235221069244
H        16.28484522602906   -0.33742550242123    8.43970925207370
H        15.92077351325686    0.56517130538659    6.98050043767400

