36
CSD_code = TIDHUJ | q = 0 | S = 0 | Stoichiometry = C15H18CrO2 | MND = 10
Cr        1.69933542183012    0.54037043058346    0.01181263211168
C         2.00629487311166   -1.42059767705463    1.03120485426204
H         1.38843701043555   -1.72110677578568    1.87165035469832
C         1.42452080986392   -1.63964082149683   -0.22616164757006
H         0.43701132780413   -2.08705478933914   -0.31035191676335
C         2.04120930056190   -1.18773032433341   -1.39517010027257
H         1.58458914209755   -1.43997780045301   -2.34803439487340
C         3.26188035004438   -0.44064843257139   -1.46096496188774
H         3.47476503647918   -0.06117095365733   -2.45758514249819
C         4.08562421952776    0.00826824266300   -0.47524413014085
H         4.87684280630403    0.67626550552102   -0.80914953965756
C         4.33966390387212   -0.50957763559004    0.91020274690379
H         5.40380183412667   -0.78803994050608    0.97609993225336
C         3.47568946923976   -1.72499646761791    1.21529974098914
H         3.66540866129597   -2.05239610865208    2.24040621468931
H         3.77017651705996   -2.54109721607523    0.54556312089657
C         0.90069759840787    1.45218832186911   -1.34450950068768
O         0.30938303745624    2.05325581017776   -2.13426892071506
C        -0.05641423770308    0.74575334027405    0.38987736494397
O        -1.20247816536593    0.88284936459600    0.49696866444930
C         4.07353325213993    0.59780972196833    1.94007754525075
H         4.64643367027559    1.48575428943887    1.65549389348477
H         4.44916730574116    0.26935134136664    2.91357068030578
C         2.59858111065590    0.95267906249969    2.08018951670264
C         2.08481494928831    2.13219785252962    1.50985091441218
C         2.54709117355462    2.56417995691761    0.24855952470713
H         3.59786701842721    2.47012846147083    0.00256708164469
H         2.12897293119405    3.49404161753746   -0.12113862005579
C         2.00504769065474    0.51109730114379    3.39886350049933
H         2.42255592590161   -0.44013358509954    3.71802784326008
H         0.92577262538721    0.40229255322853    3.32962686522234
H         2.22031258435859    1.24767887827735    4.17673728262188
C         0.96780918796763    2.90093659778964    2.16863327838264
H         0.17296330417091    2.25953121336021    2.53812467877000
H         0.53319400693592    3.61409657846089    1.47175523551410
H         1.37594434689699    3.45214208655827    3.01821540814629

