45
CSD_code = TIDMOI | q = 0 | S = 0 | Stoichiometry = C24H15FeO4P | MND = 5
Fe       -0.24009879019825    9.51257924225800    1.13155394349060
P        -3.38429291031362    6.92380701195370    3.67372441568418
C         0.92898988678023   10.39905646623998    0.16194708673478
O         1.69528215957091   10.97729069134216   -0.47196207726583
C        -0.66024126497560   10.92606759998381    2.14294702823886
O        -0.96880691213820   11.80188071004244    2.82504539636890
C        -1.26417566776377    9.08663571800528   -0.26786008566449
O        -1.97502596076073    8.76572923159255   -1.11778930003477
C         0.95352689074650    8.33858183929155    1.75192198653055
O         1.65779451343319    7.53978084384271    2.19552535023547
C        -1.48609561911677    8.54797073705853    2.13684064098916
C        -2.28389486702156    7.86956850153241    2.78375709094364
C        -4.46289929955283    8.92410596757381    5.20507147580228
C        -5.46743974497551    9.75364317375268    5.66404830298164
C        -6.76793128128139    9.58053590259040    5.21310155569639
C        -7.06516286725487    8.58184859575795    4.30005102249429
C        -6.06567312869771    7.74600724289317    3.83309686701497
C        -4.76624374665533    7.91265545429315    4.29635572566434
H        -3.44072420328817    9.04997245310275    5.53791339725843
H        -5.23825120365775   10.53863595319478    6.36870385830723
H        -7.55138040883366   10.23148919808049    5.57081406011240
H        -8.07753647177630    8.45593179639257    3.94620786309572
H        -6.28946144313517    6.96795797503005    3.11596687903432
C        -3.27201130434662    5.87639224359563    6.27033048199561
C        -2.60863893480696    5.28818110020207    7.33185828520877
C        -1.25555759532097    5.00288492174440    7.23434487408021
C        -0.55685901864520    5.30764273054375    6.07644770595971
C        -1.21090160192251    5.89526114212810    5.00938886818370
C        -2.56955455623943    6.17653256889113    5.10784023574744
H        -4.32513155521012    6.11457843037840    6.34468876357554
H        -3.14689187097099    5.05547483211278    8.23875979523327
H        -0.74280390320627    4.54673466813703    8.06780807710526
H         0.49834456082546    5.09184627706400    6.00647316355033
H        -0.68028645990218    6.15398475344788    4.10280065412899
C        -3.85061638986039    5.62234459948571    1.27964058760319
C        -4.35537669930624    4.60393012456350    0.49077902647264
C        -5.04880873766982    3.55467723547697    1.07272536815477
C        -5.23997788126019    3.51595966895802    2.44601694794053
C        -4.74046390768651    4.52870745776463    3.24332163168130
C        -4.04959660802622    5.58409168008848    2.65484661073027
H        -3.30018078469354    6.44623075096146    0.84560094624726
H        -4.20471403610418    4.62888442610632   -0.57768353406075
H        -5.43969950036770    2.75995549092591    0.45521693419261
H        -5.77720737976155    2.69354292971437    2.89459702156609
H        -4.88012349463355    4.50552966190527    4.31581507100068

