59
CSD_code = TIDVOS | q = 0 | S = 0 | Stoichiometry = C28H20F2N4NiO4 | MND = 4
F        14.30911506571732    2.88652858421185    1.29421039892810
Ni        6.15148706321979    1.93517750069305    0.00004456984095
O         9.03014090024074    5.98760597684979    1.61523730122444
H         8.99515532127861    5.08792871070074    1.21506131319545
O         5.72914633104705    3.53871782654594    0.83456500267251
N         7.98965530782320    3.68599923367402    0.92204696410016
N         7.91821371867572    2.47629400942452    0.30734102469326
C         6.67085140852067    5.50489125608758    1.77910712203082
C         7.78866125987402    6.33709801020167    1.97573860386184
C         7.60113512048173    7.58935257917060    2.56375577044701
H         8.46820743572349    8.21490562627121    2.70536555287076
C         6.34598845501834    8.00694908068190    2.95005950902885
H         6.22376674918546    8.97769657909575    3.40672090155760
C         5.24020561548757    7.18772624161731    2.75568448229580
H         4.25881269252825    7.51835975301901    3.05879672201160
C         5.40712918112104    5.95213513460498    2.17264220997744
H         4.56482950585347    5.29719602804984    2.01006643008416
C         6.78811285248879    4.18747302131312    1.15074623022431
C         8.99707613177874    1.80457659277902    0.05893913504987
H         8.85363788219890    0.89466798510394   -0.51277406398734
C        10.36453177075498    2.12610220233618    0.41830431932970
C        10.70692997267910    2.94542951393805    1.49870324504197
H         9.93284855960673    3.35800719069660    2.12337931986566
C        12.03017887176283    3.19883668938142    1.79902314659355
H        12.30134807263502    3.82716489833277    2.63213563654442
C        13.01780593991029    2.63427143302918    1.01084740063843
C        12.71476097188693    1.80324383377574   -0.05572309218179
H        13.51087082055222    1.37031528568179   -0.64047746438637
C        11.39049415021092    1.54484323041395   -0.33858339917981
H        11.13825157324636    0.89781913316854   -1.16532501716537
F        -2.00604201696106    0.98423979149660   -1.29495887068444
O         3.27280607923471   -2.11724841723105   -1.61508253180981
H         3.30781243482943   -1.21758757508840   -1.21486966086369
O         6.57382760874176    0.33158510968521   -0.83437431349093
N         4.31332470845508    0.18435551670299   -0.92196782439259
N         4.38476419260985    1.39407382803835   -0.30728713626390
C         5.63212413160573   -1.63465122486682   -1.77878883492038
C         4.51429067927173   -2.46678718087808   -1.97553074189156
C         4.70181963132379   -3.71911655216991   -2.56339001881474
H         3.83474416454667   -4.34469840949121   -2.70491592535665
C         5.95698636648820   -4.13682530407116   -2.94948606844713
H         6.07919874248587   -5.10757171045187   -3.40614820766707
C         7.06279267141736   -3.31767871586564   -2.75498694660102
H         8.04417182603213   -3.64825495612998   -3.05825816249464
C         6.89587087710840   -2.08203585900677   -2.17205459004660
H         7.73816106716765   -1.42699288101081   -2.00971630189671
C         5.51486464018106   -0.31715812880251   -1.15058606394767
C         3.30591602882278    2.06587938311816   -0.05906323955533
H         3.44934942888105    2.97583595820732    0.51257312236427
C         1.93848574119139    1.74442774530678   -0.41858486865476
C         1.59616806699909    0.92503425733491   -1.49895933780551
H         2.37030104303130    0.51233977090438   -2.12349536654999
C         0.27293839309523    0.67171342251237   -1.79944165339065
H         0.00183200199057    0.04331887983044   -2.63252489045053
C        -0.71475120038588    1.23643237748707   -1.01145358163958
C        -0.41178311430929    2.06752052429260    0.05509149738822
H        -1.20793819845755    2.50056856269847    0.63969599995463
C         0.91246675294554    2.32583634666155    0.33811082962866
H         1.16464855015087    2.97293229993748    1.16481441309212

