47
CSD_code = TIDVIO | q = 1 | S = 0 | Stoichiometry = C23H19N4Pd(1+) | MND = 4
Pd        4.79022612507307    5.14066822181620    5.95269154674015
N         4.00888558732614    6.15252323066443    7.43637798769215
N         5.37703081921933    7.19652238033143    5.45698434771658
N         5.60992517221840    1.60438181729962    1.94375033292494
N         7.59547777448992    2.50716091833600    2.00551809576723
C         3.30985280165882    5.46195153616623    8.34901218598549
C         2.70119181156101    6.13926530809361    9.40851625725871
H         2.13538420993237    5.60157978752397   10.15084195083328
C         2.83277493957744    7.51422905845433    9.49040286428714
H         2.36795520973606    8.05465869798703   10.30049386113720
C         3.56123673328580    8.20406902129859    8.53106636172547
H         3.65842409050107    9.27474632240340    8.59369437948482
C         4.14993868899240    7.48121023829502    7.49580069861747
C         4.95371814819543    8.06368380220646    6.40120898617486
C         6.10594432094227    7.64352378695859    4.44230121213524
H         6.41226769713844    6.90215867817178    3.71279278308515
C         6.46108667826583    8.97643110617536    4.30229849031748
H         7.05410425693772    9.29675731435310    3.46133342488194
C         6.03641492109293    9.87821418491556    5.26546268940792
H         6.29342302098397   10.92366598090672    5.19393856807795
C         5.27455879146610    9.41741006535225    6.32566993393496
H         4.93870779928582   10.10323604751543    7.08566549323336
C         3.28825342806986    4.02065568161517    8.08731085480085
C         3.98578401047070    3.58359280516712    6.93015259480624
C         4.00023480904250    2.22107392876012    6.65802030007195
H         4.53300540070861    1.84882325531458    5.79177399855354
C         3.34820914639828    1.31663883604557    7.48784459722973
H         3.37517256853931    0.26187501485613    7.25639767623697
C         2.66558662640432    1.75646553421908    8.60883965591155
H         2.15944077865284    1.04983400873274    9.24850809750336
C         2.63629716729679    3.10471001170420    8.91094721936435
H         2.10651373323295    3.44115156199614    9.78936897815648
C         5.93757599101250    3.37475705756862    3.57896788921120
C         6.36528258193592    2.53883872537498    2.55618808069322
C         7.61039824908720    1.54316851163661    1.03638500752228
H         8.48502920968813    1.33176389997388    0.45711328871223
C         6.37551161252862    0.98211762811050    0.99831110505553
H         5.99081958270705    0.19858005358353    0.37911746600895
C         4.23818647073731    1.31094267627734    2.25561647292200
H         4.14923201658117    0.29869527927892    2.65279187456764
H         3.62250931809127    1.39225280893431    1.35962415311808
H         3.88804581292946    2.02313080510287    3.00310761798564
C         8.69582353324091    3.35051077528941    2.38195169428405
H         8.94212006100406    4.03907944514512    1.57174451774263
H         9.57359033924827    2.74475446216588    2.60726495048912
H         8.41269586076233    3.91951526397736    3.26703703746602
C         5.51895209375500    4.07652446394315    4.48959242018829

