83
CSD_code = TIDXEL | q = 0 | S = 0 | Stoichiometry = C35H38N4NiO5 | MND = 4
Ni       14.04714810050509    7.98047882515092   11.01034278626061
O        12.38409027891943    8.44083725012744    7.02763868264503
O        17.63337736272468    3.07333615721075    9.53217931693882
O        12.08779108363749    0.98817939067753    7.22934102339641
O         9.94923837754996    1.21259299627864    6.59935555823033
O        11.02217614409767    7.53705567011919   10.73151718425687
N        13.05769985881158    9.41765460393102   10.36706697209422
N        14.69674854758316    8.99474654362925   12.44695854042107
N        15.33726083667764    6.70859094878296   11.29203264025442
N        13.01113384127105    6.70884353192644    9.96735708136100
C        12.51663364257363    9.49062159724576    9.14079197617700
C        11.46102604131933   10.45371185313988    9.12378258298681
C        11.40745807690773   10.99555951358111   10.38872262294651
C        12.42794372148865   10.34422876972731   11.15582271322677
C        12.89146733722730   10.64422077393788   12.42647772557222
C        14.01530573121474   10.04615168967555   12.99562003563773
C        14.66374350141205   10.45127874006589   14.21389260395668
C        15.75630750366925    9.64032273067521   14.36926688572961
C        15.74480938740913    8.71524748727840   13.26690800107209
C        16.65081824171152    7.66190404304693   13.06471914240314
C        16.46277815299664    6.70495785112351   12.09017511567554
C        17.32670248206272    5.59624495827463   11.71698536552200
C        16.68522743851335    4.96935087485930   10.67470225657823
C        15.46176770107624    5.68081826711037   10.45697479827975
C        14.65860666680082    5.11064906462717    9.46093337888570
C        13.39406012064847    5.62261010824162    9.26066402060552
C        12.26460292107520    5.11574918751778    8.39505393233052
C        11.03508145694330    5.77799650652266    9.03734001753097
C        11.63657439848948    6.80246705683247    9.99196889251814
C        13.05928473936143    8.77264048667150    7.98480275771419
C        14.56108576478277    8.57136322211989    7.99019881771853
C        10.61109046215483   10.79499517059168    7.95114090373185
C        10.52542899306959   12.09491244964724   10.87249576059104
C        11.21485657082711   13.45604183660451   10.73755653710084
C        14.19249556241290   11.56020640365846   15.08759336771758
C        16.75020873925314    9.62929118535553   15.48219088109701
C        16.34926384069141    8.62442306211069   16.56520594184761
C        18.62021262257391    5.25266769678901   12.35098677393498
C        16.75041024224028    3.87777159655595    9.71145652785166
C        15.42834924070916    3.93196844887439    8.91251616918690
C        12.18002982141792    3.59584955053276    8.28376481749583
C        11.00516375013543    3.14228092400297    7.42127917109602
C        11.10796817861025    1.66981032176146    7.09071336669637
C         9.92466463966102   -0.15623424255508    6.21620686675182
C        10.06603711524724    6.45774719673239    8.07554959790142
H        12.39908856668701   11.42558048365194   12.98575370046513
H        17.51062804765948    7.59001025774437   13.71246583507098
H        12.41283477970411    5.53630863954642    7.39178651553287
H        10.49021710104440    5.05068893654304    9.64947571378256
H        15.01848380285550    9.48381742891448    7.60684083210722
H        14.82993602212156    7.74645978138390    7.33503325115712
H        14.94616589508144    8.39927643834002    9.00602023532254
H        10.59854224536999   11.87029046719004    7.77764095833434
H         9.58677396481602   10.46867204660398    8.13116680699350
H        10.97578431515921   10.29148198751691    7.06059049489138
H        10.26270634906160   11.92212370494107   11.91806114749216
H         9.60421611344122   12.09890371001601   10.28769008240590
H        11.45805479919740   13.65588158640887    9.69662873963426
H        12.13905750774314   13.47476099274919   11.31098380072831
H        10.56374229022931   14.24865393072873   11.09891159816256
H        14.83737229264591   11.66784611961147   15.95546986237251
H        13.17809628542127   11.36494812273067   15.43457385882327
H        14.18702239525579   12.50322281992844   14.54051142416281
H        16.81822059789449   10.62600953325519   15.92203543975963
H        17.73788774557407    9.37168535683359   15.09399591463536
H        15.37536330308811    8.88164857095359   16.97491631254423
H        17.07752126497173    8.62496464182705   17.37295253108212
H        16.28888641273851    7.62107789086053   16.14975837869936
H        19.30789463667930    6.09679557441039   12.29962516812862
H        19.06311779223716    4.39968714596376   11.84393236279122
H        18.47389225981992    5.00471092934774   13.40265116217284
H        15.64939393150398    4.03102531045731    7.84754447251522
H        14.90960058008543    2.98170626104054    9.05203911391528
H        12.09304975543403    3.15591517186629    9.27965188121444
H        13.09074870761382    3.21052358663309    7.82629928355045
H        10.04429881958598    3.31921578242947    7.90432918126234
H        11.00454264043381    3.68593079746747    6.47265827049925
H        10.18182875083362   -0.79175980118923    7.06568276294114
H        10.64140267127168   -0.33746642386307    5.41282944382214
H         8.91198359389276   -0.35882405819029    5.87781409210745
H         9.32420713599894    7.01064395619986    8.64754677590967
H         9.55590353442969    5.72808985917976    7.45151531652697
H        10.59880385394914    7.15845015917402    7.43716716655838

