82
CSD_code = TIDXOV | q = 0 | S = 0 | Stoichiometry = C41H33CuN4P2S | MND = 4
Cu       -0.38912081209365    8.34678948805357   11.58264862211028
S         1.21859862563770    6.70972370356500   11.07379588398823
P         0.05843366541206    8.65352583726203   13.80791695406537
P        -0.67507558777308   10.11573080336455   10.28992817089557
N        -1.90052772335535    6.96078294252368   11.85527255510231
N        -3.21691834168818    5.34724199169302   12.61878678414964
H        -4.03404759456854    4.88251066303941   12.97755459345362
N         0.54517000837821    4.23069164210044   11.78440445429047
N        -1.59753110256292    3.50928955833032   12.56778198542152
C         0.16001602677201    5.50489518567366   11.60707098110733
C        -0.32037847218978    3.34938588148904   12.23306023458732
H         0.06211262865717    2.34341098870692   12.35397716982668
C        -1.99846001039250    4.76685052142855   12.38676343812844
C        -3.09691853623104    6.66328275146866   12.28698184755961
H        -3.90935926282535    7.35895262080651   12.36831595778147
C        -1.18610081435934    5.79566422974951   11.90668369688303
C        -0.37609157068687    7.15168197533629   14.72677076171203
C         0.53041086171891    6.09213663717775   14.68343781611328
H         1.50100953955493    6.23861987383705   14.22785207756958
C         0.18139696823796    4.86034212117315   15.20108367621296
H         0.88376473846878    4.04169729904176   15.15634240118059
C        -1.07625683639842    4.67016349730304   15.75219919619910
H        -1.35401078608618    3.70180550940902   16.14017907209530
C        -1.98028802256182    5.71877571273536   15.79261773606772
H        -2.96127799592144    5.57023078028473   16.22246296187144
C        -1.63892831570158    6.95636759008621   15.27690247295659
H        -2.34948709732689    7.77232445748643   15.29963581921938
C         1.74488867906007    8.99626592721327   14.39001113095847
C         2.15488797003848    8.78007140000305   15.70304232911171
H         1.45951611767905    8.37374266327877   16.42595408920530
C         3.45527585307817    9.07278746346183   16.06951073303786
H         3.77671690575147    8.90584438907112   17.08764529170452
C         4.34796596047966    9.57426817876092   15.13422096250442
H         5.36289988755319    9.79855248325810   15.42832269619121
C         3.94633003529673    9.77300057756575   13.82364063311400
H         4.64623383453627   10.14730453829350   13.09138101623043
C         2.64748241989758    9.48036742626571   13.44935288784218
H         2.32308225316726    9.60372254267024   12.42368147405820
C        -0.96415859437451    9.94265897016538   14.59368264007910
C        -0.54100414449394   10.79002394944423   15.61021383292675
H         0.44881639168499   10.68121988158124   16.02974089403177
C        -1.38909820520649   11.77992254464892   16.07558255541682
H        -1.05952909540543   12.43697451329908   16.86747271439501
C        -2.65326741240016   11.93534447335604   15.53060681825544
H        -3.30728963534269   12.71219626155223   15.89816840386375
C        -3.07449647117840   11.10214903036432   14.50592540925491
H        -4.05296126641793   11.23054136259245   14.06624233837181
C        -2.22967422881293   10.11644944452423   14.03472140205805
H        -2.52769227828531    9.47601313654613   13.21249526466701
C         0.53235662179403   11.44059300051965   10.57805389612474
C         0.72012311031657   11.83232308877325   11.90322383974954
H         0.11597291778847   11.37461198825757   12.67824088331511
C         1.66765390573847   12.78456105833336   12.22166056614789
H         1.80641793224598   13.08305749537155   13.25058142459688
C         2.44641737294995   13.34408428896283   11.21983224377426
H         3.19185669741975   14.08549749290488   11.46664181658910
C         2.27543786822884   12.94541319991714    9.90451328378227
H         2.88905249659042   13.37558468250851    9.12641056530668
C         1.32474891257237   11.99338395719182    9.57885908797938
H         1.19960622837217   11.67749214409870    8.55296991139272
C        -2.27779716278667   10.91869433333217   10.58466693373835
C        -2.44697211410611   12.22720400337481   11.01934314696969
H        -1.58845868735370   12.86917902965638   11.15538234578977
C        -3.72009507433438   12.70702821333630   11.27475538557266
H        -3.84960914532976   13.72567483274949   11.61068400927062
C        -4.82484159588255   11.89030948815318   11.10170159355740
H        -5.81548788868223   12.27153583820079   11.30241748876002
C        -4.65947100351116   10.58114466241285   10.67350533938360
H        -5.52183760932146    9.94349472632585   10.54012354709736
C        -3.39178457051867   10.09545272763228   10.42307480693769
H        -3.23929991810546    9.07156937193257   10.10369312753948
C        -0.65824246467838    9.89762418724216    8.48711320949321
C        -1.34120541896395   10.73626321901646    7.61143446767429
H        -1.92329657411314   11.56178777743745    7.99852311816979
C        -1.26817809026296   10.50482522900316    6.25012059954990
H        -1.79615228238951   11.15363201479307    5.56608208980972
C        -0.51967737669842    9.44469747931189    5.76147427714006
H        -0.46773925406387    9.27082886258340    4.69659737539625
C         0.15640253621018    8.60642012132844    6.63359773390356
H         0.73435288641109    7.77810398430582    6.25173803035673
C         0.08532139652650    8.82746891576727    7.99705828187099
H         0.59676619149416    8.17686316424366    8.69628273546791

