39
CSD_code = TIDXUZ | q = -1 | S = 0 | Stoichiometry = C17H13N3O4SV(1-) | MND = 6
V        10.63576216803711    2.39433941357269    4.43866518207080
S        10.45254850121998    4.08291307869635    6.10862510451979
N         9.35615658135337    3.39477408466329    3.53429253138805
N        11.38371580668143    0.95208937636816    5.36953228333127
N         8.82240739882548    1.57309499659173    5.52164205788174
O        11.94402436910175    3.02687560632746    3.98196602212308
O        10.04668893748139    1.02277969470679    3.16818821912359
O         8.46898835302914    0.52586828587597    1.70013908935030
O         8.92647497266496    5.55935551377540    2.88135252562813
C        10.16410362293254    5.14599298886756    4.85621637945517
C         9.43677933636838    4.72057188670901    3.64137945995812
C         8.65084675315375    2.80495024755735    2.44560546075219
C         9.07534116002198    1.32130224735855    2.40715241703239
C        10.48778240082423    6.59219543158664    5.00679139804583
H        10.40945749339052    6.90681599662487    6.04563897293236
H         9.82292490674721    7.16961926231180    4.36550093287578
H        11.51333234201137    6.76169236646258    4.67248911180466
C        12.69211824950366    0.65919574502866    5.40545417514304
C        13.19302644727597   -0.55668472855908    5.82348504797463
C        12.32920684553294   -1.56759891463360    6.23529161512945
C        10.95881499848196   -1.29795876590435    6.22965678947525
C         9.96996490165997   -2.25135851762140    6.61654586178319
C         8.64683273233813   -1.95579509888928    6.60130305358587
C         8.19321012749175   -0.66258297468908    6.22609092952924
C         6.85064310285712   -0.27349588547556    6.21451363350696
C         6.52849526703034    1.02137804999415    5.86865539716585
C         7.55751819955627    1.91135669563447    5.54121595786595
C         9.15744498212186    0.30863638446419    5.84231445831802
C        10.53388201376118   -0.01449856797324    5.80902564788878
H         7.55793475708193    2.86505696331852    2.56767716793597
H         8.90472761821500    3.29778584101817    1.49249785183300
H        13.34774328942227    1.45196838877186    5.06409327753939
H        14.26055564686732   -0.72319966386939    5.81659840030347
H        12.69757925439786   -2.53481181427765    6.54462433705900
H        10.31020893180680   -3.23344667614504    6.91724065632721
H         7.90929833596842   -2.69585716746866    6.88268349529824
H         6.08203209471060   -0.98788499025821    6.48032527116067
H         5.50177125346518    1.35468603628103    5.84784299228081
H         7.33265584660654    2.94277918319570    5.29178683461958

