68
CSD_code = TIDYAI | q = 0 | S = 0 | Stoichiometry = C32H28N4P2PtS | MND = 4
Pt        4.23530944274279    4.67778747950144   10.62681396226334
S         5.40912835366089    6.11338161889550   12.12596807276928
P         6.07748938946026    4.67064014087239    9.30506890116957
P         3.21267831416677    3.20365554048804    9.17551341035873
C         7.67589873661185    5.25156116362781    9.92817413068959
C         8.19187935988849    4.59887702759546   11.04461853906488
H         7.62552734436040    3.79447624148513   11.49576984941156
C         9.39674970775637    5.00186072090520   11.58529363889760
H         9.79301605202184    4.50101167763178   12.45579835747967
C        10.08711186146470    6.06212953437396   11.01858258232626
H        11.02462993689576    6.38440924582548   11.44648162666366
C         9.56909712670984    6.72014710823775    9.91592993450700
H        10.10222170900548    7.55461525606445    9.48460852139456
C         8.36198314339649    6.32126838801133    9.36860985201308
H         7.94941573753253    6.84475038782372    8.51765192927481
C         5.65899132261026    5.74557690773408    7.90175988530538
C         6.25002627230387    5.67472957068628    6.64417372101855
H         7.05454817289731    4.97800828735818    6.45624194630228
C         5.80994642375025    6.50531983338704    5.62876505248362
H         6.26765245145364    6.44540750509201    4.65211371810211
C         4.78825709856039    7.41243902427151    5.85977923131473
H         4.44746875625486    8.05352986069602    5.06065853138125
C         4.21012030992205    7.50239825645157    7.11556619936309
H         3.42193755649154    8.21645570456685    7.29958508892654
C         4.64339995436536    6.67108223481702    8.13073585689499
H         4.20431429630156    6.73082250041277    9.12781806317662
C         6.57603020896400    3.07600717071281    8.51446153266257
H         7.48284025834196    3.26217960097493    7.93016480982849
H         6.84247340428330    2.38683311837278    9.32230906617447
C         5.49451964359895    2.46391681682629    7.62758991602733
H         5.93787627796999    1.63834617125035    7.06149232360194
H         5.15119576755092    3.21387902821929    6.90957502667786
C         4.30365693026379    1.92058615952551    8.41462755966760
H         4.65489328277251    1.29329920910562    9.24148338537703
H         3.67478193485417    1.29305182007582    7.77426304684372
C         2.37635855143054    4.04001113097751    7.79833526720117
C         2.40204609489343    3.63176870479593    6.46963337910649
H         2.90952046842720    2.72340792885914    6.18072916311316
C         1.76420089724030    4.39137367953234    5.50390884164845
H         1.79046879263845    4.07347076953374    4.47185715966154
C         1.09220021676482    5.55027902275754    5.85400749750906
H         0.59852780016395    6.13700087522922    5.09395306833153
C         1.05205650208130    5.95479733550213    7.17922777497781
H         0.52225575084150    6.85363757321982    7.45641255245301
C         1.69851478611623    5.20827997013140    8.14454245485772
H         1.68764808775370    5.52040933878963    9.18243080889579
C         1.96651151019024    2.11337526379062    9.91348071778178
C         0.77271712169009    1.77848024009574    9.28787353699865
H         0.54326614169226    2.17949737479641    8.31007652468948
C        -0.12488992125831    0.94637278476493    9.93469234356050
H        -1.05891652615424    0.69167986931591    9.45621084482932
C         0.16600062227925    0.45075113805960   11.19510889913887
H        -0.54390546479860   -0.18863429071196   11.69762062148431
C         1.35832869356028    0.78406336725762   11.81987198623583
H         1.57707720657555    0.40611224134326   12.80705381250287
C         2.25632995374203    1.61639333115318   11.18134746593012
H         3.18045099060359    1.91769754855161   11.66434112075700
N         4.05768524314450    7.16677409108550   14.26515177148725
N         1.73254724002587    6.73223725674658   14.68622675265188
N         0.70368486041779    5.24494728663448   12.99914746449747
N         2.58977759729569    4.94795545881788   11.78531895515928
C         4.04959097032388    6.39832730857887   13.18716588917087
C         2.90628876870213    7.27159850389502   14.93408686836890
H         2.95632167314083    7.90470879774090   15.81113526143865
C         1.70576700809812    5.95266703189981   13.59940304889983
C         1.27050455536864    4.68367958270567   11.95434146270615
H         0.71396897435005    4.05952412250792   11.27670136233484
C         2.87522829282614    5.76301504934347   12.83585805196401

