63
CSD_code = TIFBUH | q = 0 | S = 0 | Stoichiometry = C24H34Cl2O2Ti | MND = 4
Ti       -0.34115524330275    0.32008392234604   10.72418599240773
Cl       -0.10567501185147    2.34004036176421   11.48464209903599
Cl        1.21377797667484    0.18747115118434    9.22198669294937
O        -0.10062236836497   -0.80731508938978   11.92123227086675
O        -1.81492185165187    0.33707193891119    9.90528493827057
C        -2.99582357913582   -0.28513035679279    9.90233113731213
C        -4.15664243208839    0.45112469212045   10.19401983993834
C        -5.37412650944446   -0.21014376144577   10.18340101179859
H        -6.28301715277182    0.32991769368561   10.39515056209621
C        -5.44013557336280   -1.56372229550712    9.90127443623964
H        -6.39729236680882   -2.06315017782013    9.89364058345488
C        -4.28973425202360   -2.28289421489391    9.62636817047921
H        -4.36683030710152   -3.33623801375263    9.40989412785830
C        -3.04905628283556   -1.66388006201664    9.62671197659420
C        -3.98954540963622    1.92822731412982   10.47480997212336
H        -3.09513199058789    2.04373710709688   11.10964899379770
C        -5.17955861903084    2.55314072570562   11.19692725804503
H        -4.93288500994312    3.57014453603818   11.49285477070510
H        -5.43417716544125    1.98965470447169   12.09209137358589
H        -6.05079474153591    2.59397477861925   10.54701008622605
C        -3.71687790150610    2.66586999033487    9.15716153649121
H        -3.58496300622227    3.72926514595433    9.34376478154143
H        -4.54916445167326    2.53085702469122    8.46849515820977
H        -2.80892753516483    2.28366593270398    8.69030456188971
C        -1.74932452039338   -2.37642415621491    9.31276874605422
H        -0.96718250180317   -1.98391649777982   10.00006450681038
C        -1.31614365393977   -2.02793012541995    7.88173194620963
H        -0.36662807491298   -2.50563026946236    7.64801545718037
H        -1.19238007567716   -0.94838557263054    7.77376369838479
H        -2.06663155917693   -2.36684904300882    7.16931212392781
C        -1.82081069406833   -3.89003178506532    9.50069121870632
H        -0.82658843788648   -4.31857643098517    9.39557433081098
H        -2.46377473013678   -4.34415295315990    8.75007839820905
H        -2.19919418766488   -4.13920487628650   10.48988689506860
C         0.06754281765265   -1.47199847253423   13.06890451668459
C        -1.05827240048931   -1.80917840096423   13.83758809450516
C        -0.85598359248362   -2.46518531418779   15.04114587607766
H        -1.69918326060048   -2.72674207936624   15.66013606715518
C         0.42253937520113   -2.78997737782119   15.46096946745728
H         0.56284625238146   -3.29770205089554   16.40338830957957
C         1.52287137481527   -2.47330675579786   14.68252237533269
H         2.50858403570626   -2.74172535000637   15.02701900423271
C         1.36786788812757   -1.81734055052070   13.47206589159934
C        -2.41203432227420   -1.39511887615497   13.30630897766977
H        -2.40356879354306   -1.56137529404163   12.21611966083914
C        -3.57515556015455   -2.18933038177814   13.89407587070207
H        -4.48721236427717   -1.95056788861211   13.35139970574056
H        -3.72741236579487   -1.94059135650681   14.94156393936343
H        -3.39476479394971   -3.25818866159084   13.80844437117747
C        -2.61502694432326    0.10767071147531   13.54991713530248
H        -1.82413242515645    0.69120909946976   13.06040563249553
H        -2.59242586783748    0.31881011857606   14.61795746943657
H        -3.57871733321018    0.41941443906636   13.15184260062977
C         2.50771539008478   -1.41914370705152   12.56141661592779
H         2.17184270655107   -1.58591621039898   11.52344016829077
C         3.78160428139997   -2.22796421180901   12.79010550295523
H         4.50430092289961   -1.99806908063356   12.01076040414516
H         3.57308515993248   -3.29500480000219   12.76190584942271
H         4.23166306706972   -1.98156190592562   13.74907235689605
C         2.79411322740307    0.08091326755793   12.72565480498883
H         3.57703307989997    0.38810881251161   12.03485490780470
H         3.12212139090428    0.29054429009555   13.74264922605639
H         1.89719827453564    0.67554664982618   12.51938554425102

