49
CSD_code = TIFCIW | q = 0 | S = 0 | Stoichiometry = C24H18Cl2O4Ti | MND = 6
Ti       13.55058647661024    2.78359561931087    6.54715299637240
Cl       11.81294257313034    4.07243966695752    6.28832654094993
Cl       12.65318104674865    1.07998199110594    7.56233599025031
O        14.22403687422685    3.60643183736518    7.93542111302532
O        14.98763705611500    4.37687438092468    5.59389191571659
O        13.61965385258043    2.14828419845423    4.91615227468059
O        15.51648020439882    1.67211804151074    6.53312547081633
C        15.01330942044991    4.66289846467405    7.92934917460406
C        15.41799127434406    5.15225215963157    6.67151699533257
C        16.23877087012335    6.25666102715110    6.55445245320946
H        16.52704147551684    6.61410726946052    5.57652707169099
C        16.67670956886337    6.89145851204176    7.70739158917270
H        17.31624088258906    7.75609743402655    7.62723943287828
C        16.29714810914008    6.41775507085175    8.95232882215633
H        16.64489971236342    6.91826162534259    9.84297659640226
C        15.47468976597594    5.31225980327015    9.07474851424302
H        15.16647108175810    4.94257483603308   10.04065473705722
C        14.51257201636222    5.06702150009079    4.47849593411304
C        13.67863340250895    6.16982710788217    4.61217389733763
H        13.39906706781863    6.51495463880573    5.59783608897716
C        13.19251891811995    6.78865692131820    3.47503063869054
H        12.53323087603645    7.63703149051452    3.57416862130969
C        13.53567684887678    6.31678729684307    2.21822822645180
H        13.14613581674351    6.80029420521058    1.33553438477732
C        14.37275144437232    5.22117321436548    2.09467863334769
H        14.64305524566527    4.85042565417690    1.11757098472235
C        14.87216907384013    4.59460711384044    3.22347616136792
H        15.52371711504507    3.73564079925042    3.14176332254870
C        14.62864972202649    1.48243783309824    4.38990502945020
C        15.73285772784522    1.23118964816806    5.23350482218181
C        16.84286240507637    0.54160407387547    4.78717407184842
H        17.66697546100282    0.34284086714740    5.45656739935568
C        16.87317403634229    0.10515330333223    3.46935013431292
H        17.73637070938803   -0.43166119657296    3.10903988602145
C        15.80095341027105    0.34618816148557    2.62618920456479
H        15.83505961293433   -0.00292339875866    1.60546058068588
C        14.68066637184690    1.02660606202335    3.07205858459754
H        13.83904658081097    1.21647321438187    2.42324204096648
C        16.57667130259874    2.11022965338233    7.30526073887460
C        16.48091333322304    1.87823165790846    8.67353380701067
H        15.62694763865179    1.32796889859365    9.04786260502936
C        17.45328361356863    2.38352434477885    9.51643492858362
H        17.38044574572278    2.21197166446950   10.57929722426680
C        18.51593026593612    3.10832111843331    9.00034010981115
H        19.27102254736657    3.50442332614045    9.66133734385450
C        18.60661750330121    3.33049095508636    7.63702060014456
H        19.42892013167497    3.90196373864005    7.23454404046913
C        17.63885168322996    2.83557763533138    6.78004119723109
H        17.69276212685815    3.02581655863836    5.71708706853017

