46
CSD_code = TIFCOB | q = 0 | S = 0 | Stoichiometry = C15H21ClN2O4RuS2 | MND = 6
Ru        2.73557145259479    6.20243954863952    3.49904974868091
Cl        4.45384319652863    5.02772070876957    2.42120923684729
S         3.50429946188223    8.15676598289336    2.65351443648358
S         4.03447512977279    6.39594644780827    5.31680156657810
O         1.10737512690329    7.13187529573277    4.44804621116167
O        -1.12009261371830    6.63046508840959    4.51702700207664
O         2.90120827909280    8.47215491692604    1.36278963318642
O         4.78564452756059    7.64342221753296    5.41120031116970
N         1.80652858917133    4.57807645734605    4.20502677813241
N         1.41077713858681    6.10292502025337    2.00933036093540
C         0.50961929153907    4.84221533264052    4.41162762597311
C        -0.37205938871672    3.89860442338882    4.90613069165961
C         0.10724756660014    2.62837722373892    5.18426688656315
C         1.44619702846981    2.34981108374111    4.93911106912290
C         2.26474298995594    3.35007677064310    4.44907982261263
C         0.15083086387922    6.28245709301382    4.02330359432776
C         0.16828830714530    6.22075264432923    2.48364837187375
C        -0.93650185512885    6.30500905595876    1.65732575007428
C        -0.73270963937682    6.26927023442518    0.28673469743391
C         0.56089992265540    6.13892723069967   -0.19784986234647
C         1.61260165842693    6.06085423803879    0.69767765486183
C         3.14540820518691    9.57382614705707    3.72634866948210
C         5.29399679586841    8.39539808704313    2.45177624461021
C         5.23985542586241    5.08204676305190    5.70193872371005
C         3.05062211820018    6.29292902365883    6.84680567124647
H        -1.40089281272220    4.17786426025987    5.06429373766448
H        -0.55078658502140    1.86755915189847    5.57487612588257
H         1.85108938649205    1.36722226994993    5.12206562339017
H         3.30770245672747    3.17870281870435    4.20987831150944
H        -1.91635292991668    6.40898404381993    2.09539855830433
H        -1.56976193086647    6.34383250413084   -0.39088837114527
H         0.75625790311734    6.10477320248937   -1.25735477684985
H         2.63986252905222    5.95546302718036    0.37315903200331
H        -1.02177971087820    7.51622376391494    4.88807678416370
H         3.30890459245688   10.48346661136595    3.16085244733900
H         3.78741231182054    9.50697024468043    4.59557450251112
H         2.10339828129278    9.47624067782413    4.01371048425297
H         5.46173729001391    9.34774208066207    1.96332493327523
H         5.74000584610434    8.35484044145368    3.43827912815209
H         5.65643568911066    7.57780247261761    1.83607950548791
H         5.77850503547329    4.87442500461760    4.78151260513774
H         5.91102975949451    5.45954409223312    6.46412500922236
H         4.71198916405733    4.19738470767874    6.03629743079440
H         3.66910648319329    6.58326468401923    7.68785484825156
H         2.22504725843012    6.98590610897804    6.71416651292246
H         2.67472040359556    5.28144079574118    6.95469667126037

