108
CSD_code = TIFCIX | q = 0 | S = 0 | Stoichiometry = C56H42CoFN4O4 | MND = 5
Co       13.93974005368279    6.64681398040374    8.11388690343280
F        11.38727639625631    0.60874363890010    8.06785537208630
O        14.23526598126210    9.44344083396365   -0.45337524706509
O        17.44658449936526   -1.39634818398098    5.93596979714657
O        12.56537721144514    3.53380056942534   16.47501852704017
O        11.63738098934054   15.03646118695106   10.52835455992486
N        13.86357557889867    8.37004078826083    7.21724962667068
N        13.34931856011245    7.47078917083634    9.77475702575615
N        14.45657591748453    5.03987932311034    9.10816722038021
N        14.60503895240166    5.83593510624577    6.46555238119707
C        13.58957632731935    9.58645207644999    7.78043280100775
C        12.06631029762577    3.87262283766363    6.67575165835660
H        12.32271565601506    4.32248156561992    5.72942513282048
C        11.50811708220629    4.09537751964829    9.00279435812613
H        11.34471398872528    4.72313061017691    9.86547477282218
C        11.54164812140245    1.95000647430392    7.97430463997465
C        12.11959605035955    6.13427814226535    7.72161667696809
C        11.33112986761186    2.72950814353509    9.09788739769637
H        11.02888906230770    2.26113536207829   10.02196967160340
C        11.14740498783221    6.98217925365652    7.44098414497341
H        10.14599233067800    6.62025511738322    7.24189027607103
H        11.27069072203308    8.05031432975351    7.39554098477196
C        13.72745499323656   10.63624655212829    6.81478628461454
H        13.59012587676181   11.67957142670191    7.02026988436683
C        14.02786995510222   10.04103720402614    5.63924902176762
H        14.20745697310250   10.49746737601738    4.68572949888933
C        14.07911620401482    8.63260855642460    5.89474877248614
C        14.28275348478572    7.68757230344414    4.89746921088780
C        14.49347755541321    6.35139533777083    5.20301373772053
C        14.74639003663584    5.34316831650769    4.21778630198561
H        14.67077743256138    5.48778958625811    3.15808768472921
C        15.08157925410129    4.22084119406514    4.89301991859475
H        15.33535611449531    3.25572299179859    4.50096798147232
C        15.00882102250060    4.54379983499232    6.28684848820147
C        15.33799036381259    3.64585698185860    7.29394132261983
C        15.11351157666432    3.93971835418385    8.63084217057961
C        15.46335063144539    3.05308071747857    9.70031587806822
H        16.03671779608242    2.15409738983912    9.58901801175509
C        14.94075047256614    3.58446562523307   10.82751815657041
H        14.99882095908873    3.21172445068523   11.83122416472950
C        14.28974922362230    4.80042238212203   10.44198955281366
C        11.89323901442825    2.50411486318781    6.75769128182586
H        12.02972195333840    1.86823941014343    5.89703474916098
C        13.56138963559535    5.58682096598226   11.32569373938535
C        13.08663056444191    6.83863684144712   10.95881852862493
C        12.36946018275709    7.70328943870150   11.84760282185017
H        12.01097747276303    7.42484313752844   12.81888717315398
C        12.26238018376434    8.89662720337603   11.22219339971294
H        11.81777928438657    9.80240354888908   11.58450064601856
C        11.90198992803068    4.68438897206585    7.79883585329851
C        12.87967765685618    8.74331485676180    9.93922944266846
C        13.06467145791379    9.79089796862009    9.04831554850844
C        14.30381982812827    8.13015681339719    3.49154763792670
C        13.18632505433682    8.75009553881803    2.93331607952624
H        12.30286678674799    8.88923142779126    3.53849671909387
C        13.19529893149774    9.16834934613919    1.62169614925705
H        12.33240454613762    9.64215316081209    1.18098399873507
C        14.32951542514298    8.98848981043062    0.82701018822329
C        15.44993892554702    8.37694684966301    1.37807277539189
H        16.34575373893672    8.22738739556466    0.79583984650914
C        15.42792308347497    7.95239299801981    2.69553000917877
H        16.30846882810583    7.48960692377158    3.11700344177979
C        15.34297730120737    9.28937882560477   -1.30587369113805
H        15.04151227891705    9.71664273085249   -2.26099886296665
H        15.59880010808140    8.23415020127788   -1.44732299722926
H        16.21882156775630    9.82853365183093   -0.92997981988130
C        15.90988657826597    2.33824742580354    6.92770544779721
C        17.09594996920604    2.25843296416599    6.20883893435783
H        17.60740718131471    3.16793712395841    5.92838530448095
C        17.64588639236025    1.03654360548317    5.86195728862410
H        18.57409731125070    1.01834845489339    5.31240759813809
C        17.00227922308088   -0.14162685043496    6.22404388454517
C        15.80498703076057   -0.06807915108299    6.93938731498374
H        15.31130875240525   -0.98826938391099    7.20869569192204
C        15.27214022910381    1.15206885845522    7.28961444181661
H        14.34271441998692    1.19669052870018    7.83652062213049
C        18.64663434105145   -1.53710435360635    5.21666043067010
H        18.57854517058605   -1.07736119002222    4.22516776049281
H        18.79946140472483   -2.60940896183318    5.10515615116375
H        19.49462006665942   -1.10637843641876    5.75939314671439
C        13.31665118149023    5.08002555241556   12.68821081094815
C        12.63898081531319    3.87626928057254   12.87996498220044
H        12.29105277995840    3.32468468811005   12.01974372486962
C        12.40240882373901    3.39480664807522   14.14777036363430
H        11.87224068866487    2.46852366203966   14.30343492053280
C        12.84834637562628    4.09841906044251   15.26862581745891
C        13.53543067008115    5.29335312333131   15.08585189696843
H        13.90375135779483    5.85831237588673   15.92785326539153
C        13.75990334318013    5.77359739624945   13.80713646399523
H        14.30630548199014    6.69646418408219   13.67709164621801
C        12.98693831802364    4.19373674474067   17.64307876582855
H        14.07705926883521    4.28966574204771   17.68051353386243
H        12.65312453966250    3.56990265060448   18.47076236656348
H        12.53150798161919    5.18550188927442   17.73209311449382
C        12.66157084051222   11.15706990253602    9.44219974308644
C        11.32305617536894   11.48399297702510    9.60821734300365
H        10.56863598998211   10.72828142994504    9.44366768093459
C        10.93667324862124   12.76423497817598    9.96734992223932
H         9.88582893123315   12.98021045264164   10.08060772758508
C        11.89800401108317   13.74716223823918   10.17297312848706
C        13.24609636016135   13.42248386349576   10.00991480222139
H        13.98144599882951   14.19419849675387   10.17468896061628
C        13.61968077589860   12.14759332129068    9.64656713417592
H        14.66556046548683   11.90678342724275    9.52551188082843
C        10.29814706525875   15.42884588364435   10.70168057961313
H         9.72187448125159   15.31374338737256    9.77776411111464
H        10.33272689940258   16.48255337412435   10.97408626504950
H         9.81354676152074   14.86426532664767   11.50504564704522

