90
CSD_code = TIFFAR | q = 0 | S = 0 | Stoichiometry = C41H39N2O6OsP | MND = 6
C         3.23638805910338    9.06112977672496    2.60100940915056
C         2.69522677769575   10.34138977182125    2.51468085101218
H         3.19780740454594   11.06849855319277    1.89002313801022
C         1.55100966531848   10.65959593445062    3.22001087492815
H         1.13493916836912   11.65406974579518    3.15741619179075
C         0.93977035982606    9.70078656839422    4.01389605659430
H         0.04718129144764    9.94757378978823    4.56985766779489
C         1.47300768402454    8.42579592817964    4.09660375987994
H         0.99487236889327    7.67934743329671    4.71447483906822
C         2.61897401073396    8.10001665518035    3.39028578265959
H         3.03289112569198    7.10378379749347    3.46181111329045
Os        6.38606167757610   10.37830871967907    1.65283774802406
P         4.71229394786751    8.77542132209542    1.56856112955818
N         7.84303162789637    9.25097338431197    2.60169967408985
N         8.14742796127984   11.70489949047685    1.39947451069164
H         8.77748275808035   11.07904962692509    0.88768602174064
O        10.57628746920439   13.76446983691832    3.21794641491404
O        12.06760478234902   12.08394282405119    3.53827472515153
O        10.48941728597324   10.52169698212284    2.89295237866928
O         7.06607953676990    9.48788157455608   -0.11942801270453
O         5.11220475543865   11.73160348973819    0.54770169933121
O         5.33086859445335   11.73680886924779    4.12844853699462
C        12.93605880762624   14.27448738034637    2.98959278684828
H        12.89854987904341   14.04340755876136    1.92756238659877
H        13.91688647118668   14.01163771171993    3.37315892977153
H        12.75805903907367   15.33636177272220    3.12883952377098
C        11.88129239086853   13.78399346460649    5.23242670789631
H        11.67405114666887   14.83849214962243    5.38206842687868
H        12.85509439549958   13.53371320390738    5.64007579533255
H        11.12000677160911   13.19562091385266    5.73673110982283
C        11.86393839820573   13.47481916506587    3.73961579557338
C        11.23607513037407   11.62872346959312    2.51065220790829
H        11.83464690759550   11.33584825357791    1.63808056015390
C        10.23369187710132   12.79028412234546    2.27120469299516
H        10.30287516979067   13.19803113098541    1.25662473947245
C         8.85226860780342   12.16725485695403    2.59011814070760
H         8.22497654743310   12.89230436534158    3.11582932826008
C         9.30819777587457   11.01343369141545    3.52233668307829
H         9.58248210773917   11.46668094230056    4.48790133632913
C         8.38106916171770    9.82559355528082    3.80998969730490
H         8.99190759738776    9.09133408678621    4.35332077510806
H         7.56569036781140   10.16372357662753    4.45360665600766
C         8.46540839408060    8.23395308125000    2.10003677999771
H         9.26064211109219    7.77791726235704    2.69604151493746
C         8.23479767059054    7.63025985582092    0.83407370786169
C         8.78531937114095    6.35851263772515    0.59365586668595
H         9.32681536155423    5.87811286101528    1.39783999962701
C         8.62834636121271    5.71928910811531   -0.60646415055734
H         9.04522373646507    4.73635293390613   -0.76507784962867
C         7.92473298854682    6.35707706711319   -1.63461907639410
H         7.79726510483100    5.85489911755977   -2.58369603013651
C         7.40506883691726    7.60804231511731   -1.45378380149091
H         6.86581161789293    8.10789906713812   -2.24577305471697
C         7.52724103056655    8.30147631114765   -0.21893960538392
C         7.73008323743876   12.77862864923594    0.47093138346610
H         7.42343096359653   12.27129755734823   -0.45259253363173
H         8.55978771783778   13.45744243135622    0.23797901689617
C         6.56023758233019   13.57672429022394    0.97555960617056
C         6.70840083765551   14.88095626258186    1.41113845857919
H         7.70069432371906   15.31125848505024    1.46619453234706
C         5.60722298824692   15.64194686242335    1.76231899202520
H         5.73499839405822   16.65672623347879    2.10761671736293
C         4.33979602526100   15.09256263424467    1.64486789353152
H         3.47256831277650   15.68877960098468    1.89229464040821
C         4.17131270769426   13.79053124400588    1.22732728176526
H         3.18240052519746   13.36538045688397    1.13732045907590
C         5.27636620762137   12.97884482125858    0.91370603770788
C         3.88967916158342    8.45135593007280   -0.02455350674919
C         4.15896957180989    9.24730439192308   -1.12988685372039
H         4.86301253937087   10.05965171464545   -1.03162517003127
C         3.51547461189453    8.99739451834149   -2.33042115972843
H         3.72575639614240    9.61411012624087   -3.19220161664104
C         2.60123910007988    7.96244839384705   -2.42905474001240
H         2.10328026367637    7.76619608588539   -3.36762526235525
C         2.31421227091538    7.18148989084084   -1.31957912865576
H         1.59050753931459    6.38248596139408   -1.39311568813583
C         2.95034218483343    7.42600599070710   -0.11751127066224
H         2.72107768747031    6.82555248906032    0.75268766509203
C         5.31107680170666    7.14235523383756    2.10509289719141
C         5.72115722409513    7.04277178209317    3.43399880604536
H         5.59500404530651    7.90146016016295    4.08249317703415
C         6.28133407966787    5.87182422801151    3.90548512904737
H         6.59385090963446    5.79793375531214    4.93715520607523
C         6.44792498095290    4.79240748373517    3.05057212926374
H         6.89029818057607    3.87747818569925    3.41633928095107
C         6.05544333944636    4.89103370180028    1.72682286302069
H         6.19598563942633    4.05551645002588    1.05738393239388
C         5.49337653455583    6.06306607700474    1.25028367698004
H         5.20960480460321    6.14105946943848    0.21083506618266
C         5.74477286183080   11.20513738651351    3.18660699041653

