103
CSD_code = TIFHAR | q = 0 | S = 0 | Stoichiometry = C42H40BF15N2Si2Ti | MND = 8
Ti        6.06526907116035    5.31438706732117   10.83936728174845
Si        4.07858264866177    7.48578564694353   11.04883541292415
Si        8.42038101841961    4.98933480873487   12.65136497121600
N         5.08147119814529    6.65649488137700    9.85420664019545
N         8.03330063096673    5.36249408494630   10.97347646150633
C         4.71115821755052    6.35325241080193   12.41908102727152
C         6.08853571038188    6.48844529050622   12.73595264719985
H         6.62011559106345    7.43120901855831   12.79953145422291
C         6.61427768425236    5.22543688227248   13.13356135453545
C         5.55841886190708    4.30349009109268   13.02397071409461
H         5.60857089353075    3.27424465015452   13.35227399796660
C         4.40136268550655    4.98401140802784   12.58635105917650
H         3.40472241742227    4.56682174515631   12.52375920853663
C         4.98741368053519    7.03335042414027    8.43695071639115
C         8.98661467580411    6.13679890041848   10.18001233964213
C         2.16977936841734    7.46249062737145   11.05697447662238
H         1.74107815314643    8.12172242619659   10.31194816302381
H         1.81422126909637    7.79217977113513   12.02868292596522
H         1.77200512903652    6.46921324261690   10.88763551284690
C         4.64634964908999    9.29676122318557   11.35149520319951
H         5.72720497710745    9.40517185085873   11.31967069964089
H         4.30969065762453    9.63575182852856   12.32536072692767
H         4.22432113645343    9.97299524510729   10.61540509796679
C         3.63565998504891    7.68022919271686    8.09948621896824
H         2.81536782248482    7.05040404662295    8.41348903183079
H         3.56363801806912    7.83041311005248    7.02472184657404
H         3.54273360453902    8.64708887223520    8.58380265341316
C         5.12412749883025    5.79042308848879    7.53964605107876
H         6.02373685772387    5.22130114308462    7.77936880461205
H         5.17857092519923    6.09004596269619    6.49510937472067
H         4.25423541967322    5.14654322560111    7.65705202235250
C         6.05823544908918    8.07711565766862    8.06173285503011
H         5.98037470399261    8.93137090213950    8.72989673705765
H         5.88797608935518    8.42226979931347    7.04450231526164
H         7.06257386320344    7.67446620939515    8.12118873472812
C         9.17510694439410    3.27134470725384   12.99527353834742
H         8.41258671140486    2.51108922522242   13.10976685288182
H         9.74939588079927    3.30306270584710   13.91396488493847
H         9.84026017964277    2.95473196458286   12.20037453814309
C         9.41615073100741    6.20459060630801   13.76404570413194
H        10.48412080075395    6.01887465637318   13.71460475548439
H         9.11780724564388    6.06199321115626   14.79921117248882
H         9.24865503412867    7.25062663321422   13.52801738801210
C         8.86083296652656    5.82147479382367    8.68208213585146
H         9.32020840822766    4.86018328756751    8.46854607398872
H         9.37391799980284    6.57910008231354    8.09264478021975
H         7.81158729687887    5.79182042239773    8.39473984490100
C        10.44586462876009    5.83872959996038   10.55333375163684
H        10.69239743402311    6.21762207637342   11.53685373371592
H        11.10899965341367    6.30906729435475    9.83085096079288
H        10.61897142005759    4.76607384009634   10.53624945770829
C         8.69252691463779    7.63144752961169   10.42328804536915
H         7.61610795300757    7.80317209891047   10.32731874639258
H         9.23163278948833    8.25804441037378    9.71643555886908
H         9.00018816072603    7.90766241817568   11.42827707487731
B         3.87528207089415    0.95307758940457   10.06292961475489
F         3.34781294691064   -2.04014154992939    9.69690474694770
F         1.65123201745905   -3.48162227171479   11.14212678542648
F         0.11717668751524   -2.31247820401852   13.08212903154611
F         0.33755410781052    0.38901255319062   13.50828259715055
F         2.05666334687696    1.84570275320880   12.07370682401203
F         4.61506338501569    1.62481468248172    7.24841048555168
F         6.53586406033592    0.45195692475131    5.82714450779378
F         8.00665427584927   -1.60124974311711    6.89077912656372
F         7.50074879651900   -2.41252472936438    9.45615793971702
F         5.57346299092454   -1.23018034845741   10.89230247592146
F         3.55233645964334    4.08703104096540    9.97329174653280
F         1.51423919407325    5.28133724752663    8.76576921535759
F        -0.23581054972448    3.91428140901303    7.19735427500978
F         0.07913906248454    1.19724600831706    6.90399539347186
F         2.03405994656203   -0.06784295278099    8.19163034962947
C         4.79239862885721    1.76061380167582   11.20333322327498
H         4.24419045048417    2.63569274620239   11.52953394292070
H         4.90662258995579    1.10797620678736   12.06880858385196
C         6.14388694932714    2.09692471754418   10.67589458574019
C         6.31495789576549    2.96390331767094    9.58022943829906
H         5.43929810723460    3.38312360638531    9.09019983705965
C         7.51248899000200    2.94555825726543    8.86034626994972
H         7.57062204477809    3.46112162118492    7.91054348986745
C         8.58361578550964    2.17943615532391    9.28134469222584
H         9.49715945381149    2.15458072404315    8.70652205830791
C         8.45386043414753    1.39952756897115   10.42009674829376
H         9.27609669295595    0.78103503863341   10.74772151299536
C         7.25041044270735    1.35379191008699   11.09674494779864
H         7.13784316372087    0.67313397343634   11.92848141947088
C         2.84406408654460   -0.03667464405577   10.86921664730780
C         2.66544693396038   -1.40017811467873   10.65433216241091
C         1.76693125203745   -2.17174564079046   11.38748597325795
C         0.98230182636100   -1.58330586088937   12.36970197221703
C         1.10122498847009   -0.21689632352743   12.58753230062739
C         2.01226885958314    0.51602849040214   11.83954335448251
C         4.93783840099706    0.17882357185075    9.10579040446502
C         5.25620039604131    0.57711664269857    7.81476549702914
C         6.26452167546715   -0.00803540183547    7.05804146394509
C         7.01667920976477   -1.04126515792314    7.59587018706588
C         6.75134341348280   -1.45447647915336    8.89558630518136
C         5.74037276752891   -0.83817948908193    9.61875957203690
C         2.85234817017581    1.90710374853558    9.19983654043477
C         2.67938165282338    3.28274610647255    9.26886145730558
C         1.64896521177583    3.95477894312836    8.61975161703301
C         0.75135610401408    3.26552203477773    7.82055512059231
C         0.91302293608796    1.89308717455096    7.68047161688366
C         1.93720697113225    1.25488404617139    8.36703820558878

