55
CSD_code = TIFLEC | q = 0 | S = 0 | Stoichiometry = C26H24Cl2NiP2 | MND = 4
Ni       -0.52602852552623   21.12103572032078    8.32507396463249
P         0.89048443991082   22.62390980635917    7.87530600514784
P         1.06219339256857   19.81447032572289    8.81031104235631
Cl       -1.94783347728924   22.55898354342499    7.73693351193552
Cl       -1.72542187778256   19.48242563996136    8.89291928300461
C         2.58929776399275   21.85082756337441    7.79984785047769
H         2.70158848085159   21.37410486407696    6.82118287743729
H         3.36748420712888   22.61018376962550    7.91321529929811
C         2.65329186476772   20.79301359389216    8.89327978839008
H         2.70385859642825   21.27907242321495    9.87225304748770
H         3.51998632438117   20.13619800518864    8.78196418710508
C         1.02688889198111   23.57443290652737    9.41714832993341
C         1.88511689226449   24.66216443869231    9.54131119806911
H         2.45628019756443   24.99735207534206    8.68581140986983
C         1.99038721113504   25.31535824121372   10.75533973671238
H         2.65237040335707   26.16331216343930   10.85394933915838
C         1.24723039404928   24.88664014232122   11.84497885494863
H         1.33316894652757   25.40291562362885   12.78964327466544
C         0.39024536461974   23.80470238531162   11.72418934929310
H        -0.19303643808351   23.47587156656632   12.57124045755979
C         0.27932492454243   23.15008366607114   10.51105331714048
H        -0.41021946660742   22.30733118800313   10.39637028426658
C         0.87813998241488   23.87610830707572    6.57235178932677
C         1.53782365216675   23.68118207279633    5.36358768427541
H         2.10868329859356   22.77963567552922    5.19154343471562
C         1.45672996105642   24.64183836900962    4.37144895933148
H         1.97345050670991   24.49021516833366    3.43487067509323
C         0.70760913805486   25.78923308472088    4.57295971078834
H         0.64321120559865   26.53395677875255    3.79353367040125
C         0.03020748914993   25.97473466631003    5.76781652654340
H        -0.56666760121450   26.86166062369934    5.91926248316936
C         0.10853079988131   25.02109203560131    6.76444523256839
H        -0.43490372837760   25.14519653295843    7.69008586966859
C         1.18791182493348   18.59925211885822   10.14202985039433
C         0.62356880216970   17.34037974523824    9.95147217068351
H         0.15150994347139   17.10799413611338    9.00777064816300
C         0.65413847772439   16.40913165396028   10.97167198997944
H         0.21731815132273   15.43330151395658   10.82063549172670
C         1.23431943837958   16.72957770260973   12.18883573739822
H         1.25495230183589   16.00167089142830   12.98632837891789
C         1.77474960547100   17.98902829778737   12.38912817302273
H         2.21239602891336   18.24464899728930   13.34320368348414
C         1.74644852269381   18.92714907730647   11.37291334781125
H         2.15129959313317   19.91493898905571   11.54319195656939
C         1.34064090415977   18.86469226656587    7.28794128255561
C         0.56638274595121   19.17867693663703    6.17560336004641
H        -0.22110349199189   19.93389624577289    6.26496727689980
C         0.77594366891364   18.52314058547196    4.97606750131716
H         0.17160891545066   18.76559834439528    4.11479172100063
C         1.75876798707429   17.55067890147902    4.88726075933795
H         1.92135884936147   17.03273837683646    3.95365839813263
C         2.53102471310833   17.23357387373555    5.99471330655108
H         3.29248165630116   16.47087105767507    5.92092881208146
C         2.32778593831413   17.88887394947337    7.19505177654457
H         2.92222220849707   17.64004337129390    8.06410593260947

