56
CSD_code = TIFSIL | q = 1 | S = 0 | Stoichiometry = C18H23N8NiS6(1+) | MND = 6
Ni        4.62942209097716    2.77978633402608    1.89114297511229
S         7.08498118820329    2.64772859935180    0.75796285621124
S         8.66295679020554    5.19212815646198    0.61999588992761
S         1.36987027637223    1.37361902333147    3.28479569787700
S         3.61161005241067    3.57664016124935   -0.07124673197807
S         2.06177919259318    1.82572542727182   -1.85427673917248
S         6.77755036210208    3.55034670246458    4.80093182638268
N         2.93742878715942    3.48530772474705    3.22725656880097
N         5.23916589882923    4.49527607244992    2.30740655810688
N         0.85714312851639    3.72777232861304    4.31797570505335
N         6.39384487303238    4.97266188440629    1.84016687939565
H         6.63256829069809    5.94564365225387    2.04150635247921
N         5.47798981321430    1.65850921930294    3.46983036174726
N         4.02001724081369    1.15982638593680    1.37085174966658
N         6.63680008550643    1.02197970430006    5.42036749078993
N         3.29523048144995    0.96778965697828    0.30026022566071
C         1.75878895790939    3.02879690437962    3.64604718903629
C        -0.28997899575354    1.25846735492555    4.00476426389657
H        -0.62677427671745    0.24083279301040    3.83755517295314
H        -0.94248243130012    1.96671896233307    3.50562983693466
H        -0.23262833857812    1.47666453895343    5.06555156741175
C         1.11614858349530    4.99441451509933    4.60328440502083
C         0.08868392171735    5.74812108241884    5.36805535170140
H        -0.06744101379061    6.73190843746799    4.93200756056830
H         0.42777044778001    5.88756597328498    6.39413348003669
H        -0.84519350124873    5.19463153789167    5.38239649153393
C         2.32059263412365    5.57804587903099    4.19856326517138
H         2.54214599288870    6.61017899517722    4.41116085454448
C         3.21673767644710    4.77423527328158    3.50189561036954
C         4.48422987439091    5.26610650250673    3.01397853439538
H         4.77533771820829    6.28896879920922    3.23839071022177
C         7.28801550919414    4.24333738689219    1.11266224998241
C         9.60957593569597    3.97953833310828   -0.32192959953891
H        10.49806814831953    4.49173475113710   -0.67734713455180
H         9.00797552580782    3.63035981634812   -1.15573071199274
H         9.87590866837466    3.15200817690576    0.32862266734674
C         6.23678560864136    1.91345269482604    4.53309305531715
C         7.78331440086589    3.33488528689372    6.29096763789990
H         8.18668231501535    4.31325053221139    6.53070730860742
H         8.57995087079175    2.62948388634247    6.08086242980854
H         7.15258895545930    2.96962765044765    7.09422005505147
C         6.27377417666919   -0.24634808103683    5.27116668045387
C         6.75057389351810   -1.21691853061498    6.29059607298382
H         7.29746417541966   -0.69895118103937    7.07244719568839
H         7.40299120701471   -1.95288333897802    5.82318951446061
H         5.90749718646596   -1.75081404621195    6.72464776154649
C         5.48462305892178   -0.62665686224968    4.18801373244042
H         5.18205009507977   -1.64930042747421    4.04141182354742
C         5.10019477042275    0.36734859153640    3.29122995046151
C         4.30678613121352    0.13528957009108    2.12589791240780
H         3.94756435733154   -0.85092015076016    1.86134187656211
C         3.03039880765623    2.01551089446149   -0.44316608480066
C         1.71895912718445    0.04486556320405   -1.81160085201342
H         1.08658534483357   -0.16282428152850   -2.66854688446669
H         1.20553458507529   -0.19740208499938   -0.88746515951813
H         2.65344134335165   -0.50057273164101   -1.88583345754138

