48
CSD_code = TIFSEI | q = 0 | S = 0 | Stoichiometry = C24H15AuCl2F5P | MND = 4
Au        4.49201180099303    9.86347835435039    9.81873065829834
Cl        3.62294110372667   10.07495968447890   11.92617464158339
Cl        4.42649545148836   12.04365722942375    9.11113275346248
P         5.28515535393479    9.82554654650563    7.67644433913074
F         2.76515268212874    7.43569727993899    8.90292277849830
F         3.05185355302160    4.76737695366063    9.31148921341308
F         5.15234739320822    3.83833092203815   10.78996568401172
F         6.95773343448019    5.59791583354218   11.83207035040502
F         6.66590014779730    8.26050459993924   11.37984887111888
C         4.68166745495517    7.90989759988418   10.17522623119764
C         3.78167093227765    6.99297370806197    9.66124490513647
C         3.91975152483937    5.62382748723035    9.85741185656121
C         4.99081992469335    5.15018060949991   10.60689869311009
C         5.90922458365001    6.04878682897090   11.13939464175723
C         5.74174648179152    7.41161723501160   10.91356794326180
C         5.55417493627957    8.10124794601833    7.17687220558947
C         4.68735521683237    7.39843725594901    6.34868783488889
H         3.86699294948695    7.90711639046420    5.86321885107854
C         4.88433571625124    6.04270902767584    6.14659106805867
H         4.20877364966125    5.49549985295957    5.50687879125683
C         5.93383554331621    5.38766453864029    6.76866383790646
H         6.07382144991962    4.32831440347850    6.61679322422672
C         6.80701552526308    6.09008826168487    7.58702519074378
H         7.63111354190043    5.58158442455509    8.06451857740447
C         6.61646083326081    7.44116130597771    7.79624445282204
H         7.28784296001554    8.00116402882946    8.43578323685689
C         6.91673282006775   10.55683380649195    7.47926072263439
C         7.55470035823920   11.21950049275119    8.52019575849268
H         7.05748089090577   11.33815884488267    9.47221573343924
C         8.82522070029899   11.73134435252643    8.32041586774793
H         9.32471023354070   12.24827303120843    9.12530315505112
C         9.45280709011728   11.58023447584129    7.09481083174389
H        10.44178301398653   11.98567532615769    6.94315930885363
C         8.82035047267961   10.90356817149668    6.06190604694646
H         9.31612856484138   10.77942947025539    5.11072816480382
C         7.55536516440756   10.38191700341151    6.25084182855022
H         7.05622095702282    9.83574778023467    5.46002452996964
C         4.12333752103187   10.53330481923000    6.49982863481226
C         4.49502792730586   11.52373168282795    5.59805670102748
H         5.51435770501598   11.88105552377884    5.57182351859645
C         3.54010579668748   12.06005677952581    4.75265715262898
H         3.82158088536983   12.83125371048980    4.05137397180944
C         2.22663830343942   11.62383409161768    4.81418869788067
H         1.48584866153229   12.05315270107380    4.15651711464531
C         1.85484706432351   10.65166776336750    5.73031555646209
H         0.82721032997113   10.32675683954485    5.79120645850146
C         2.79825112623044   10.10636792116943    6.58029885035436
H         2.51230026780452    9.36769710334188    7.31827056326207

