49
CSD_code = TIFTUX | q = 0 | S = 0 | Stoichiometry = C16H22N8NiS2 | MND = 4
Ni       -0.71453141101349    0.00211550200048    5.18955380169163
S         0.38171250427986    0.09674881651854    7.12139779773123
N         2.81879552556815   -3.10817120115179    3.74800577706753
N         0.66466163186815   -1.22865897576413    4.63216158215186
N         1.72678797469330   -1.46479485459054    5.45350535976256
N         2.76527144061188   -1.05307701165993    7.44093056795418
C         3.55401166166877   -3.98289766713649    3.03929136729317
C         2.89593159135672   -4.25203953034983    1.85599609066505
C         1.71820928834775   -3.50498410517192    1.85892215090210
C         1.68411198398259   -2.78960834272143    3.05580822343808
C         0.68334550609183   -1.88703313716635    3.50185155113420
C         1.70163081063658   -0.89057259422554    6.62256650340628
C         2.75726492656972   -0.69629025318688    8.83862187558052
C         2.16666724004319   -1.79670681330254    9.71783428650693
H         4.48887724834293   -4.36233265226324    3.40408909621155
H         3.23290505408760   -4.91378141332226    1.08288087306180
H         0.97122681444893   -3.47655690408015    1.09100846488400
H        -0.13877516488572   -1.74433400395087    2.81513072452493
H         3.78811474243373   -0.48444827258300    9.13533691071099
H         2.16539714470819    0.21573676518377    8.94047149379243
H         2.17923834668378   -1.48788006651806   10.75910282317186
H         1.13800338747907   -1.99113972900595    9.42454789626815
H         2.73937660804607   -2.71704914325746    9.61884891954641
H         2.98973269138934   -2.67995945507258    4.65136876496156
H         3.42464185495911   -1.76441195690343    7.16013687153307
S        -1.82305581992039   -0.10751658476367    3.26486108332476
C        -3.14466286825463    0.87594104575836    3.76791555729395
N        -3.16318081032750    1.45820685567717    4.93318756563363
N        -2.09156888175777    1.23540706824721    5.74580563633978
C        -2.09856834462154    1.90937621253524    6.86697413407554
C        -3.09632850720084    2.81567920093285    7.31224816545862
N        -4.24045714120663    3.12110612988401    6.62983496764831
C        -4.96962123703472    4.00354193313574    7.33535212472335
C        -4.29755929082828    4.29165689284273    8.50619359058483
C        -3.11773010608673    3.54795777397011    8.49916662337458
H        -2.36128851026049    3.53245561809008    9.25814166231171
H        -4.62679269358685    4.96346480090643    9.27394495553689
H        -5.91021762665026    4.37478594691895    6.97698899065560
H        -4.42219257419914    2.67981503968068    5.73498158479052
H        -1.26826730346433    1.77763947786032    7.54598052697610
N        -4.21552447578401    1.02774926888729    2.95705613402236
C        -4.21694805551380    0.66355847368631    1.56134018529705
C        -3.64013407810587    1.76288742450914    0.67153297726787
H        -3.66557897405103    1.45115061915212   -0.36861867616617
H        -2.60826420777808    1.96091724405642    0.95087947134986
H        -4.21393996189065    2.68201160645972    0.77546232632904
H        -5.24896021037049    0.44392953147928    1.27420808530130
H        -3.62039436139842   -0.24542799259167    1.45917212877154
H        -4.87767336212657    1.73583341235590    3.24002042513467

