101
CSD_code = TIFWUC | q = 0 | S = 0 | Stoichiometry = C52H41NO3P2RuS | MND = 6
Ru        2.70716586339838    2.64132140603388   23.96879348404442
S         4.58719292826769    4.21962546423539   24.35890567430049
P         1.40764257075823    4.05151247091203   25.24260981601841
P         4.13128065034586    1.45657923965998   22.60075275407900
N         2.36769958408813    3.89918444735463   22.39205808390326
O         3.02652637657675    0.69087680240766   26.21425217370562
O        -2.40384449170776   -1.56046381722594   22.53383903546430
O        -0.90886552877381   -1.75353163176887   24.19152408139895
C         1.96720273349470    4.49800534125093   26.92048658290508
C         1.18496553371120    5.35748573355252   27.68935903212063
H         0.26895458389848    5.76058834528011   27.27914722566655
C         1.58173559588384    5.69451187819195   28.96851871294845
H         0.97460403685273    6.36336886254936   29.56122634994278
C         2.75617112148622    5.17482678615039   29.49189820940668
H         3.06266470795640    5.43967862845663   30.49318424084614
C         3.53473702155869    4.31989108003692   28.73128468321656
H         4.45128983309097    3.91691603132509   29.13585000842810
C         3.14222472331012    3.98015852504651   27.44799859493511
H         3.75693884303953    3.32675112707497   26.84240906593642
C        -0.28878318891558    3.51738489160776   25.65461740419740
C        -0.40923408290166    2.20075665164643   26.09020369705874
H         0.48086487449238    1.58896669055832   26.14770544960257
C        -1.64124775303310    1.68839448473592   26.44596988747080
H        -1.72474411790216    0.66276573837306   26.77325417971351
C        -2.76768725774380    2.49251943561651   26.37783790940964
H        -3.73547324386675    2.09471479378683   26.64514732324545
C        -2.65010125694935    3.81159525148338   25.97453363816502
H        -3.52472868488537    4.44508523199739   25.93670777808602
C        -1.41651510254813    4.32890233029506   25.61792346541477
H        -1.34116035411376    5.36309967788456   25.31174246684959
C         1.19631951248593    5.68245813599864   24.47121196074447
C         0.28182765352963    5.84515813384392   23.43120471442433
H        -0.38028281865372    5.02887407756067   23.16843792209943
C         0.23360530015941    7.03691626447577   22.73308435921544
H        -0.48019759463081    7.16130672958329   21.93104401151890
C         1.10533134493068    8.06625834876531   23.05185083832677
H         1.07201080026362    8.99203224662222   22.49682237624760
C         2.02571225679121    7.90341119351868   24.07317442068731
H         2.71487264563411    8.69945314731747   24.31306906857225
C         2.07624552300538    6.71570038798504   24.77994078699963
H         2.80742225389904    6.57791328898037   25.56531785255804
C         5.73998813145945    0.90414659202718   23.25855807555894
C         6.11142151338613    1.16728643656000   24.56989726382934
H         5.45088324780395    1.74116830508020   25.20705852158695
C         7.33040982004494    0.71785207203509   25.04797970988717
H         7.61690113297293    0.92830675082466   26.06766844801701
C         8.17977505875356    0.00363448394429   24.22087887748387
H         9.13089399449377   -0.34660644164385   24.59421096265038
C         7.81185495041741   -0.26195297788890   22.91029481524954
H         8.47528151455981   -0.81848740003274   22.26424479407657
C         6.59647342653209    0.18315842447855   22.42878285154217
H         6.30517467641198   -0.02319718223873   21.40759594026659
C         3.54785869368758   -0.14287374296927   21.94131253517792
C         2.98557055437743   -0.99877530099355   22.88472257479664
H         2.93431357139626   -0.67406955313065   23.91527141898328
C         2.50886535817722   -2.23992540546061   22.51248316488389
H         2.06450349398254   -2.89059241899896   23.25072858262266
C         2.59733204568259   -2.64303466468003   21.18960854341569
H         2.21500519115745   -3.60737473220429   20.88920432437197
C         3.18661752271705   -1.81117217294934   20.25329286583859
H         3.27429953076066   -2.13168517119174   19.22504163192750
C         3.66724061434230   -0.56647536278212   20.62346575817508
H         4.13499738343080    0.06545890050316   19.88151088525594
C         4.62963538785171    2.40955172973515   21.13690093018305
C         3.74999587119248    2.54529007503597   20.06336550879085
H         2.82186378128593    1.98662143512482   20.05772662930871
C         4.05617895340360    3.40132229044247   19.02243939902236
H         3.37458420770927    3.49937921695506   18.18932309643631
C         5.22752207491657    4.14162914589040   19.05125974871159
H         5.45780968965534    4.81781105799674   18.24134621835980
C         6.09524314570205    4.02358519743227   20.12354432521598
H         7.00072599591649    4.61123537501389   20.15458242051333
C         5.79876740950895    3.16432014274663   21.16587086222776
H         6.46497708005883    3.08495252860668   22.01454702226178
C         4.25171249103398    5.24012744154479   23.01287128357807
C         5.08866315653679    6.33809336287551   22.79248083979831
H         5.90805022209023    6.49408924310818   23.47789670857563
C         4.87209959404749    7.18818464092441   21.73651940948262
H         5.52662431719409    8.03248548504971   21.57747851988082
C         3.80719181133389    6.96001843323356   20.87014665483351
H         3.63237362574850    7.62510811580626   20.03777668799400
C         2.97301466039436    5.88524301123770   21.07046510968330
H         2.15527887006083    5.73130409057469   20.38283897680126
C         3.16900189127189    5.00142646583988   22.13817853293255
C         1.34646011586932    3.57727240685683   21.66212573077500
H         1.04204608800647    4.15649136066359   20.79397829752592
C         0.60585853304854    2.40650842514232   22.01703512657610
C         1.06381515086350    1.70822963972027   23.15846017147570
C         0.37135440125754    0.55772683503790   23.50795763102620
H         0.66561484301103   -0.02443253145181   24.36895333060729
C        -0.72002621081493    0.10829471309946   22.76528552426977
C        -1.15730941950697    0.82214100327474   21.64619790383399
H        -2.00698964576659    0.45280560347469   21.09260945945297
C        -0.49816221314407    1.96857240740100   21.27452921726123
H        -0.81980438080646    2.53420480724525   20.41012405408043
C        -1.44076373924935   -1.12891929925291   23.12386319602301
C        -1.54944331384137   -2.95570480345410   24.58148101223027
H        -2.58304874106744   -2.75965421171819   24.87509647662362
H        -0.98163705811250   -3.34557585221925   25.42276597221583
H        -1.55336551448951   -3.67064140532695   23.75574506211257
C         2.91968204507570    1.45465912494909   25.35402108329896

