40
CSD_code = TIGCUH | q = 0 | S = 0 | Stoichiometry = C15H17FeNO6 | MND = 7
Fe        2.29506466438280   14.09254897924124    3.21239555694289
C         3.59741619588584   13.21017878632461    0.47003793697426
C         2.43955572159468   13.74637551219713    1.07887187512109
C         2.42510851007938   15.16643612406720    1.33284153018965
C         1.34479764600886   15.68222719672808    2.05329014028728
C         0.35597993675834   14.76619305301950    2.53408725224569
C        -0.67985025480765   15.32236888789683    3.48696370630559
C        -1.72252447149994   16.17404320943069    2.74456310809971
C        -2.70279230600348   15.46741560937342    1.78934639716843
C        -3.11704323088561   14.06205689709034    2.22283914587840
C        -3.79148394646716   17.10235909783492    3.01751024629930
C        -4.98373270463846   16.74897836994246    3.90709059822545
C        -3.80106204319332   18.59239076516565    2.65898011514890
C         4.01708108285547   13.82826164696846    3.50294549808042
C         2.25030486753848   14.80680859318422    4.83353616532871
C         1.63086996250396   12.48402919187717    3.62159675665503
N         4.53130735361900   12.77718318478808   -0.03807084853132
O        -0.01521899533530   16.12233165476581    4.43700077038289
O        -2.59513802136171   16.75297576342137    3.69588050724765
O        -3.81030165734010   16.34851858974580    1.81183895564747
O         5.11379855859194   13.61087245329214    3.73637551849763
O         2.31268656672025   15.15696427107878    5.91671417710166
O         1.20130073446963   11.46980633871642    3.92134644077374
H         1.53517050421248   13.27674720896147    0.69315815988397
H         3.23721544028042   15.80059920373345    0.99404616627225
H         1.31793515537653   16.72570142937074    2.34324258905585
H        -0.08957927301246   14.07414787403976    1.82252766352775
H        -1.19869080950995   14.49915636692277    3.99977171114582
H        -1.19550411349020   16.97254173561168    2.19559233949262
H        -2.32595060728817   15.44693958534493    0.76131225546030
H        -0.68692193802709   16.57357733245905    4.96330672320718
H        -2.30782744899382   13.35327936605140    2.07224538538095
H        -3.97127986044146   13.75545237557566    1.62437530403851
H        -3.40837578691204   14.05581582980103    3.27004636304366
H        -4.97208207684047   15.68857852722694    4.14200373741623
H        -5.90386639526251   16.98615116356974    3.38285390140015
H        -4.92769748956731   17.31809115684960    4.82987792645477
H        -2.92703248048096   18.83509033511875    2.06000602306933
H        -3.79005521346413   19.18840911094176    3.56647633088717
H        -4.69318177605527   18.81439722227044    2.08227587019391

