40
CSD_code = TIGDES | q = 0 | S = 0 | Stoichiometry = C16H16ClFeNO5 | MND = 7
Fe        5.10649947419921    4.81390151529338    5.55095436660122
Cl        0.51701979414579    6.93413999400862    7.50268520481596
O         1.79755895412894    4.09083338771187    5.27454401788781
O         0.44825931429535    3.96471011417427    7.06509198588103
O         3.42228976974727    5.62320639953047    7.77517602275905
O         3.48599416983609    5.67900203013293    3.26178260435042
O         6.47755006116014    7.34362554452404    5.96480227398922
N         8.76775681704841    5.19535156058245    3.61581591946210
C         7.84853647299978    4.61708578081934    3.98728785759436
C         6.72195632372609    3.89051954839634    4.43832572176010
C         6.73957463277655    3.42950357385746    5.80306998115938
C         5.58070796890784    2.82043367683848    6.30533674002625
C         4.44276887376991    2.72334880670592    5.45380673641161
C         3.14587325281287    2.20905784782043    6.03478757644294
C         1.92268771639633    2.65564811610393    5.21177398772832
C         1.95797992868429    2.28756607869702    3.73576827343206
C         3.18893016975411    0.67191436973820    6.15985235523697
C         1.93594265521566    0.12471651348451    6.76678725039568
C         1.18333388680027   -0.80728306355602    6.21351229091849
C         0.99091433649303    4.59983968235301    6.20837740049162
C         0.83393788262762    6.09329758226853    5.97595795941395
C         4.06994427994619    5.28681465280279    6.89540809296691
C         4.11664966998189    5.29674697045157    4.13258081310638
C         5.97318080546803    6.33048687579767    5.81538125775849
H         6.34303186017657    3.22526794953229    3.66292242362589
H         7.61773281063439    3.56942573290301    6.42392177614927
H         5.53257173481637    2.51934021146231    7.34722709020559
H         4.61282410394971    2.33592442677069    4.45117249267211
H         3.00832313711527    2.62595441418566    7.03982566779394
H         1.02972997998209    2.22218334671142    5.68097614885042
H         1.02227820763504    2.58232081405130    3.26777150564647
H         2.07960093635200    1.21578476910955    3.61871855528274
H         2.76592644774671    2.80812099712740    3.23067369277610
H         3.36435073773983    0.21758177136538    5.18343745021415
H         4.03516151070740    0.41383885371517    6.80336162354632
H         1.66560211382940    0.54815768880696    7.72497009176822
H         1.42960822945758   -1.24662247151983    5.26014408393071
H         0.29440036815830   -1.17968808136815    6.69198578676252
H        -0.02476766729868    6.25753907302489    5.32190830012403
H         1.73347827807433    6.50530294558529    5.51921662006075

