27
CSD_code = TIGJEZ | q = 0 | S = 0 | Stoichiometry = C6H14N2O4Zn | MND = 4
Zn        6.06638287728731    5.12842295214338    7.80602021475939
N         4.84611156117110    3.46248895122935    7.13127104064110
H         3.85365765717008    3.61510859067821    7.26743824401687
H         5.02266873090978    3.41312655984629    6.13236517972793
C         5.30257021420014    2.25068900384759    7.79811397739944
H         4.93691952086030    1.33705585997099    7.31093021438748
H         4.93877199265080    2.27480036891055    8.82807553068340
O         6.90120890952520    5.28332409043462    5.91873336267156
C         7.63495936233729    6.16589902184659    6.41417466348435
O         7.60796558922680    6.40552969285398    7.64358210048487
C         8.57736468950611    6.94690489477971    5.52730213802191
H         9.41215432484352    7.32163389417095    6.11126561383773
H         8.02894704922002    7.79046533051952    5.11394696384800
H         8.92230820209127    6.32190054860955    4.70893030090203
N         7.28735032946154    3.46276014004273    8.48061182427804
H         8.27976138713704    3.61578546021570    8.34453705647740
H         7.11075542598878    3.41290745319485    9.47948933027422
C         6.83120720237954    2.25115498026729    7.81317331676688
H         7.19714177248257    1.33741315749612    8.29990660140300
H         7.19503673558774    2.27582943351439    6.78323829635519
O         5.23232937632867    5.28388679523397    9.69285390196019
C         4.49793927481625    6.16598890155125    9.19744589231808
O         4.52440783533055    6.40533259230572    7.96800130980133
C         3.55627256589839    6.94753857724395   10.08467891591907
H         2.72120757221758    7.32221869338371    9.50103559293900
H         4.10517576616280    7.79112704509003   10.49742664672890
H         3.21172407520873    6.32280701061906   10.90345176991276

