35
CSD_code = TIGKEZ | q = 0 | S = 0 | Stoichiometry = C10H10FeN4O10 | MND = 6
Fe        0.00028457780945    6.21457896551258   -0.00057485309326
O         0.09438253296324    4.25203768979265   -0.43733570080948
O         1.50130725705831    2.52068006237774   -0.44357353489210
O         6.02954654395995    5.74909038091732    2.18854152297352
O         4.91072942254377    7.69216056737420    2.23576963696352
H         5.72148072960578    8.01441627029248    2.65882980523340
O        -0.60327778000152    5.62325468533934    2.07691665609460
H        -0.94656293007928    4.72303409326254    2.05706422584541
H        -1.25188261734216    6.18626331669700    2.51087520282899
N         1.78184522260059    5.90411133907531    0.49085821315121
N         2.73148235054325    6.62010660314135    1.06383758895173
H         2.57473749382259    7.58988579623027    1.29682228500019
C         1.21947972587529    3.68192139247347   -0.23314539879215
C         2.23648113389188    4.65476050006470    0.35536066102980
C         3.53485823836632    4.57310853856942    0.86386645346900
H         4.16978925364967    3.71330970195861    0.90186933267205
C         3.82710425649291    5.85500923853690    1.31693266872160
C         5.03494271855837    6.38066539700962    1.94700658403417
O        -0.09246743949103    8.17676952197040    0.43679372252200
C        -1.21729701988895    8.74760017290070    0.23313888696492
O        -1.49825297305369    9.90901807953951    0.44400027595068
C        -2.23505921459624    7.77573075889386   -0.35539077841518
N        -1.78184825681866    6.52593587205946   -0.49172985087820
O         0.60417286679954    6.80676760253299   -2.07784027219020
H         0.94609561090502    7.70743569768403   -2.05652149919539
H         1.25439235387249    6.24488797471543   -2.51080895078835
N        -2.73271756839017    5.81139221171086   -1.06458995259963
H        -2.57747017166279    4.84148840225462   -1.29807759363131
C        -3.82753125906229    6.57794543299303   -1.31683040222751
C        -3.53352274854616    7.85925815823308   -0.86329780441060
H        -4.16737918207640    8.71988127644547   -0.90055453225726
C        -5.03654007999306    6.05447570236652   -1.94653264740679
O        -6.03014899245799    6.68788567251741   -2.18732800584336
O        -4.91478977551449    4.74288377289591   -2.23581315783258
H        -5.72636428034572    4.42224915166158   -2.65853878714339

