35
CSD_code = TIGKUP | q = 0 | S = 0 | Stoichiometry = C10H10N4O10Zn | MND = 6
Zn        0.00060275904635    6.21461892564051   -0.00185383603746
O         0.22181505825568    4.38697022914290   -0.55309147975341
O         1.71403789835566    2.73732958589831   -0.62713577148428
O         6.07785016318501    5.64810960837937    2.41495689510538
O         5.08936524301418    7.65851583967268    2.39127964759199
H         5.88950984400734    7.93461790608457    2.86510147109792
O        -0.38551441850811    5.67769653994568    2.14540940199049
H        -0.65835703490715    6.49642916300890    2.57320125157284
H        -1.05595929613028    5.01023764824943    2.31703516708370
N         1.97112361178655    6.08458589289202    0.44704438485869
N         2.92633083215011    6.72886048137517    1.08608766557255
H         2.83759341339175    7.71040587415934    1.31163493922448
C         1.36600744340812    3.86245754627343   -0.33848736192410
C         2.34320979678555    4.81497502981514    0.33347839236355
C         3.60319884248654    4.63960280130502    0.91590358036150
H         4.17139855534145    3.73608878042459    0.98271990458475
C         3.94704665313869    5.89549161753846    1.39742267705539
C         5.14836848568214    6.34386231144373    2.11070415620228
O        -0.22094333267364    8.04356735888596    0.54865049766399
C        -1.36601805436582    8.56679807897147    0.33597737900782
O        -1.71391554746347    9.69249381094283    0.62276521761901
C        -2.34314114566249    7.61362247504030   -0.33521923055268
N        -1.96997723992769    6.34444351596476   -0.44977691276282
O         0.38751358527876    6.75863496014664   -2.14671454203721
H         0.67050778803863    5.94582930767296   -2.57916010645638
H         1.05026936739171    7.43505689724672   -2.31331080881467
N        -2.92574838765179    5.69924546397440   -1.08695435171896
H        -2.83624404121909    4.71785545456086   -1.31290340902697
C        -3.94787936108445    6.53162621636576   -1.39628073092191
C        -3.60428458642491    7.78787235741766   -0.91548825854659
H        -4.17370658014677    8.69072312586402   -0.98088736819593
C        -5.15031678999471    6.08197556112058   -2.10692994692639
O        -6.08075700729522    6.77700559697570   -2.40993396998202
O        -5.09105328970986    4.76719941481980   -2.38660156514330
H        -5.89193322757933    4.49019462277773   -2.85864297866970

