17
CSD_code = TIGMON | q = 1 | S = 0 | Stoichiometry = C6H4AuCl2N2S2(1+) | MND = 4
Au       -1.09395861110783    3.93640885063448    7.84400805397365
Cl        0.33750246094485    5.51061537747019    8.49113689089183
S         1.84390765995058    0.70129229323562    9.18044823647283
N         0.11634032379985    2.35880920435199    8.39207490780203
C        -0.43509536637911    1.12798207328644    8.14365552361359
C         0.38198717343363    0.09925221053777    8.51719033849174
H         0.19919398668039   -0.95328825592008    8.43663778646877
C         1.30256696359992    2.29023121892170    8.93126830511424
H         1.86864647073329    3.16792976949114    9.18663069604955
S        -4.03202190593708    0.70129904548328    6.50799366177389
N        -2.30446107002056    2.35881303807443    7.29638893428116
C        -1.75302563507907    1.12798415399127    7.54480156495083
C        -2.57010849727961    0.09925590413845    7.17126358511770
H        -2.38731126240345   -0.95328460985893    7.25180598560979
C        -3.49069542056638    2.29023572170053    6.75721100750591
H        -4.05676079823530    3.16793602436005    6.50181844383904
Cl       -2.52570647213412    5.51062798010162    7.19746607804342

