72
CSD_code = TIGVEK | q = 1 | S = 0 | Stoichiometry = C25H40Cl2P4Rh(1+) | MND = 6
Rh        7.80592970637166    2.85578131644332    3.63121289352570
Cl        7.73902385678479    0.74123706109851    4.58050497948979
Cl        6.97482078206993    2.14018164707011    1.58806857322570
P         9.89787900038932    2.44658043892171    2.75776607293885
P         8.91584043983328    3.87304149438670    5.36024335043406
P         7.73673170575710    5.10066545690432    3.16528904887772
P         5.67451448563484    3.13959797476548    4.46027513094831
C        11.10754954881751    3.48675328324819    3.70576672238111
C        10.71891353769937    3.54813294506217    5.17675643392622
C         8.69805193816166    5.59457998872627    4.68236849768507
C         6.03704553239599    5.72254218112049    3.50501722637170
C         5.40951436060090    4.96396689656276    4.66628099459210
C        10.57341142881101    0.75231503919418    2.91679538525252
C         9.86052188061300   -0.22742056114116    1.99048558977407
C        10.19576726697345    2.94052329072721    1.01752945084524
C        11.62446893858668    2.74290458318619    0.52617736608007
C         8.70031396064909    3.88991902144127    7.15225682636297
C         8.49120656885376    2.64643752693333    7.74825973493607
C         8.35438879381112    2.56007419781299    9.12094442795345
C         8.42127385697056    3.70913062078221    9.89483588151027
C         8.62981538735983    4.94379716547261    9.30012013010015
C         8.77003884799753    5.04211702640323    7.92684563040850
C         8.24583784668477    6.11554796776593    1.76220958654418
C         8.90047080570752    7.33476162672545    1.89500328999755
C         9.20337118460166    8.06666607400100    0.76030883040451
C         8.85734148412625    7.58718315304304   -0.49358236268573
C         8.20350841164982    6.37100453731347   -0.62402018671870
C         7.89744768640129    5.63035514368278    0.50219552629294
C         5.31753071538273    2.47166694638324    6.12949208634061
C         3.92925150788572    2.79232496444552    6.66946414052005
C         4.27228734438541    2.61747871362725    3.40486847465823
C         4.15721898477457    1.09797054566133    3.33689390532005
H        11.08446759462143    4.48630478620657    3.25661111975592
H        12.11540813451322    3.08090289175370    3.59210527562454
H        10.89493817729350    2.58132305235180    5.66281188243741
H        11.27909480606343    4.31402682956362    5.72566363071508
H         9.65776568458664    6.06275496064398    4.45041124775506
H         8.11826128004717    6.24995385816923    5.33658495461183
H         5.46972777647013    5.55278154752523    2.58243367374876
H         6.08081841785990    6.80296546539537    3.68528825722519
H         5.88132725323431    5.24634291966801    5.61480666389419
H         4.34093412579746    5.18047423413087    4.73386178406643
H        10.43376152842190    0.44508914799244    3.95798445194517
H        11.64610414165730    0.79655371980851    2.70292338056871
H        10.21290935369007   -1.23867778265067    2.17811492387126
H         8.78741640063839   -0.20503891358799    2.16982807010155
H        10.03961960037393    0.01085144855902    0.94454698170429
H         9.90704807051027    3.99449446397800    0.93833963301203
H         9.49311892693946    2.36495655128045    0.40798858648048
H        11.69779782638600    3.08755605764373   -0.50293461940060
H        12.33450550996471    3.31287375425190    1.12096908311387
H        11.91260742283730    1.69551562442977    0.54605434028773
H         8.43055352347069    1.76416395210916    7.12253611874950
H         8.19365426405560    1.60037769404023    9.58712378160961
H         8.31089338771110    3.64331800101644   10.96608084193174
H         8.68552501766415    5.83385879132612    9.90809339602969
H         8.94333774270440    6.00536173392485    7.46815552477641
H         9.16206331373109    7.71578779329502    2.87215083351956
H         9.70863809019490    9.01569544520344    0.85526788031761
H         9.09854074099156    8.16501166685114   -1.37225156511218
H         7.93476680855253    6.00139790178042   -1.60143217881812
H         7.39730812101574    4.67261988877516    0.42451651330245
H         6.08839299952846    2.87096147864692    6.79759163079200
H         5.46975891020114    1.39013541366058    6.06854928770965
H         3.82844024396321    2.36753780536595    7.66576233456327
H         3.76784087016193    3.86508709055915    6.74592540543964
H         3.14882378058750    2.36446781873969    6.04628067175843
H         4.45438013301831    3.01897197899548    2.40306091802683
H         3.36016332816332    3.07045980004871    3.80623680891136
H         3.39074941214537    0.81574199086969    2.61935639521343
H         5.10006963124053    0.66156962404509    3.01289447329490
H         3.89577985224709    0.67435124586442    4.30377396816941

