75
CSD_code = TIGWOV | q = 0 | S = 0 | Stoichiometry = C24H48NPZr | MND = 8
Zr        1.76042978417132    5.56842132363015    7.10640016518434
P         2.30463534874502    3.67610976868537    9.87833365787519
N         1.86960571679938    4.09666017316406    8.46626611285096
C         0.93170650004458    4.11854974915749    5.22615014183557
C         2.32010562763089    3.84243674646434    5.34596692317899
C         3.03299229693191    5.02147531003643    4.99061312425204
C         2.08299397721769    6.01279957174042    4.62178651829653
C         0.78755796910279    5.45510893112573    4.76663442474288
C        -0.19494446170589    3.13823824580466    5.41906518104078
H         0.12774261708707    2.28599930318011    6.01601292974164
H        -0.54655781443053    2.75950253707291    4.45525544433656
H        -1.04461194033064    3.60606385563888    5.92296961441541
C         2.91763420802019    2.47834746615982    5.55811533167445
H         3.94217802366995    2.53977289184830    5.92308618341746
H         2.93398792978019    1.92648591843353    4.61325052313181
H         2.32841774390210    1.89946092714772    6.26893479417714
C         4.52930163220074    5.12882795746662    4.84693782474846
H         5.04670099896934    4.52332983414813    5.59363460708917
H         4.86456078099016    6.16083889029937    4.95431276704763
H         4.84480084264453    4.77975092991173    3.85945699734207
C         2.37845763733012    7.35363876173738    4.00557075358090
H         3.40444417709121    7.66280527693078    4.19962684526331
H         1.70881146401173    8.12723957816236    4.38771907779064
H         2.24610995762998    7.30953783295627    2.92111050754272
C        -0.49680488734769    6.08122423448184    4.29550107326671
H        -1.34832929633533    5.73801715997107    4.88324017454647
H        -0.68536849628986    5.81057482248639    3.25249423435489
H        -0.45354920601662    7.16893750353229    4.34927827279016
C         1.47003956559332    4.73590773887257   11.28381082978491
C         1.61196383678838    6.21229470574539   10.90002706103846
H         1.58576351034140    6.30871466327077    9.80528731500724
H         2.52683235241805    6.65440083456880   11.28192297301957
H         0.78153113830271    6.78327748398781   11.31700459202247
C        -0.01865683547012    4.40552767836900   11.17744389486327
H        -0.24455886721323    3.42701612538458   11.58946476716854
H        -0.31717684438416    4.44145145604541   10.12749060078207
H        -0.60951202302712    5.13608282704994   11.73106200585265
C         1.95013354448637    4.52346653266775   12.71561024967929
H         1.86159374372458    3.48707215127330   13.02354655342006
H         1.33918873896668    5.12797459876472   13.38768719753040
H         2.98381436377829    4.83261931529966   12.84348604150744
C         4.23570480377723    3.80426911535872   10.10921670504120
C         4.57294367262855    5.27362551154474   10.36174243157341
H         4.04101740799453    5.89887818441854    9.64339938643654
H         5.64466390564715    5.43098602551719   10.22877048070477
H         4.32764239422103    5.57737260168104   11.37464246707991
C         4.86966348786781    2.96323778869579   11.21247104372758
H         4.40688667623051    3.16452789312511   12.17445149427445
H         5.92863519486627    3.21527559288493   11.28925236361205
H         4.80159991270991    1.89806950978425   11.01357561706491
C         4.82764173396180    3.47013688896940    8.73880802002994
H         4.23014949253502    3.98776647738102    7.97228995543725
H         4.82624193923366    2.40435378396115    8.53420203848263
H         5.85924217216132    3.81905723518144    8.67887610600918
C         1.76839383102622    1.82512522007583   10.11629080170347
C         1.74711658114828    1.25951367085464   11.53143789916305
H         2.70162931836987    1.39595462911659   12.03156378443290
H         1.54290789472666    0.18870066041335   11.48199470452640
H         0.96586116544885    1.71215055540268   12.13602764530297
C         2.72134323961745    0.99089548277152    9.25943430628505
H         2.81509744631738    1.45086419081640    8.27907927711803
H         2.32277214929340   -0.01652201392897    9.13106202815169
H         3.70422068293871    0.89410578380793    9.70983249694106
C         0.38752586755032    1.70133620658143    9.46495973147061
H         0.34238136536739    2.37536094279307    8.60631204296565
H        -0.41902581557823    1.94873639644236   10.14700044405444
H         0.22228355818507    0.68114211114725    9.11937389112482
C         3.16789479110596    7.26243857653497    7.53928857629021
H         4.22881379095143    6.97926072156395    7.42245104137183
H         3.08371288401959    7.76427641503159    8.51600873371401
H         2.97203041301862    8.04839963914203    6.78985811939333
C        -0.18186447353915    6.56510683278618    7.63281565587875
H        -1.01809636107714    5.85562102720131    7.50457295968870
H        -0.35592929647111    7.40095822749138    6.93504010650718
H        -0.28596718207963    6.98525650279768    8.64292935726965

