58
CSD_code = TIGWUE | q = 1 | S = 0 | Stoichiometry = C26H26CuN4Si(1+) | MND = 4
Cu        2.11256635281065    3.55426204155318    3.73238296272323
Si        2.53387688251942    3.55541816219298    6.80474331911902
N         0.44587956616261    3.55203826565636    4.94116381405910
N         3.04056630066576    1.89003042394858    4.66100102164959
N         2.16743606563438    3.55320125440495    1.82938435245047
C         0.70721787298022    3.55527410321577    6.25348587380807
C        -0.31967639489187    3.55779724075144    7.18878202332058
H        -0.08289716437981    3.56019349963881    8.24091672990757
C        -1.63710268280860    3.55710548537325    6.75726052592740
H        -2.45056438005412    3.55915136785921    7.46687122738496
C        -1.88494275550256    3.55337009856534    5.39866796861820
H        -2.89383253425900    3.55240095858462    5.01681119612170
C        -0.81111025606288    3.55075435797256    4.51009173208820
C        -1.06240942061279    3.54721473211184    3.03834675520810
H        -0.11921858199549    3.52426160487513    2.49906646529583
H        -1.65787190180534    2.67904376412462    2.76155097101939
C         3.36973335741428    2.07657690622615    5.94427983968444
C         4.27370390659235    1.24065697969309    6.58599573429227
H         4.54525328427609    1.43215472603180    7.61138163089353
C         4.82256576899822    0.17237861956024    5.89454536908996
H         5.53345442297054   -0.48680863584837    6.36944560605709
C         4.42552519100013   -0.03983890203329    4.58817384532550
H         4.80581195109004   -0.87565272081081    4.02221149116065
C         3.52768174095469    0.84564189839785    3.99646440193491
C         3.08083366421478    0.63651632919585    2.58708114947481
H         3.76745642422907    1.13692401331791    1.90507772890450
H         2.08838091274352    1.05777715763608    2.44722906895143
H         3.06901410533693   -0.42261106659582    2.34349105525022
C         2.59502036611600    3.55689683343373    8.68441927162364
C         2.57772673404490    4.75279700929744    9.40085711682942
H         2.55416098677594    5.69217851217388    8.86795637959362
C         2.57408901676601    4.75598306690789   10.78378139395779
H         2.56371859513087    5.69333383050103   11.31950083646214
C         2.57912808511263    3.55895505650274   11.48053456691877
H         2.57970119461965    3.55974481980456   12.55973147954287
C         2.22984272432529    3.56036630308069    0.68222457207568
C         2.29468701307013    3.56932391058528   -0.74072734560228
H         1.28637097197769    3.55043885276263   -1.15476257178748
H         2.84131904032740    2.69397333791726   -1.09145939682929
N         3.03899280871436    5.21960266663946    4.65952014164968
H        -1.61883237428388    4.43803999186688    2.75176130291285
C         3.37006505953690    5.03294920515818    5.94233002577212
C         4.27596306924299    5.86803885410650    6.58239622637701
H         4.54904957183858    5.67636163928008    7.60733994646822
C         4.82475463071415    6.93569632605468    5.88993330647502
H         5.53717215416935    7.59416230572093    6.36353482200512
C         4.42548354222893    7.14833545728976    4.58431134017718
H         4.80541979020535    7.98384909816769    4.01766643423423
C         3.52578774324296    6.26367310121412    3.99421856346605
C         3.07627172040827    6.47364292554820    2.58579070154018
H         3.76398864076755    5.97723834578813    1.90195568822926
H         2.08518254682979    6.04893070541886    2.44664541383399
H         3.06020148408572    7.53321901637949    2.34428989512028
C         2.57505343177964    2.36208309175736    9.40260749768474
H         2.54945293159711    1.42198602837899    8.87106273323987
C         2.57140586251991    2.36092124431813   10.78553188890888
H         2.55897163571096    1.42438167424327   11.32262318129602
H         2.80401932420926    4.47066412410456   -1.08167927190197

