83
CSD_code = TIGXAI | q = 0 | S = 0 | Stoichiometry = C28H52NPZr | MND = 10
Zr       -1.84164567429535   -1.03530723063109   -4.11879950340708
P        -2.47450045374443    2.21008169848176   -2.97838828673999
N        -2.12835141494520    0.90807788230707   -3.71597706053523
C        -2.33636614664747   -3.02257869115279   -5.57587316588847
C        -1.54420388629162   -2.16448494825179   -6.38625021511223
C        -2.27736702103042   -0.96973266900456   -6.62205762045763
C        -3.53661812974230   -1.09809286642390   -5.97257861083831
C        -3.56846393518263   -2.36479135758707   -5.31736337761367
C        -1.97727096255729   -4.45463757191117   -5.28858696328762
H        -1.98395017166416   -5.03281040591129   -6.21672324762075
H        -2.68588105027927   -4.91185059501344   -4.60256987546382
H        -0.97874661269373   -4.54052750370072   -4.85442103686193
C        -0.32357963137180   -2.61963113248821   -7.14077657278821
H        -0.59874309591407   -3.43614708483127   -7.81449982615339
H         0.46460521157596   -2.99672026887342   -6.48652458094644
H         0.08309813279518   -1.81527463468911   -7.74992142241874
C        -1.85542198315711    0.13762618229237   -7.55253188000702
H        -1.87093743345933   -0.20882839997855   -8.58933513777216
H        -0.84533187553745    0.48506489016677   -7.32690040801014
H        -2.52902299265651    0.98943759480656   -7.47762683806253
C        -4.76636953834609   -0.26581330823229   -6.21733764447177
H        -5.43212568718953   -0.79809195254494   -6.90362597162108
H        -4.51766615764747    0.68712532129061   -6.67924632270876
H        -5.32412919033497   -0.07715759649741   -5.30079898188308
C        -4.80542685231869   -2.93925563830946   -4.68008233513079
H        -5.57025946645784   -3.11626492534391   -5.44135391609050
H        -5.23036099661358   -2.25874793060256   -3.93667900210085
H        -4.59069472841744   -3.88897637572817   -4.19657180556168
C        -1.61815189897324    3.69950085203826   -3.88322097954424
C        -2.13436327699575    5.10291041781467   -3.58624328871455
H        -1.50010185921036    5.82860570943867   -4.09783637640656
H        -2.10530183140099    5.32376758843248   -2.52349675991771
H        -3.14981087156211    5.24902151924787   -3.94328330924973
C        -0.13180153921034    3.62784888815998   -3.53283524687251
H         0.43524968786142    4.28567892580076   -4.19296405077267
H         0.22134377475929    2.60982104097495   -3.68067128677528
H         0.06840949307966    3.94386769780603   -2.51394753827546
C        -1.70775753327462    3.39041354066150   -5.37932304174659
H        -0.91605819464849    3.90982068610146   -5.91861119673415
H        -2.65357494042546    3.69696629810270   -5.81381270563217
H        -1.57442251398610    2.31402458958748   -5.51776858957982
C        -4.39896138359986    2.50728049441814   -2.98999766153293
C        -4.97686319703847    3.58284619016786   -2.07668869215062
H        -6.04132900486383    3.69354920911599   -2.29048367370408
H        -4.50029674868841    4.54409428042497   -2.24382560728823
H        -4.87979414091087    3.32782650635275   -1.02567280885073
C        -5.03766875787749    1.14583078415672   -2.69434857644379
H        -6.03179891276475    1.09116403269467   -3.13986334789083
H        -5.15213614413665    0.96728653148032   -1.62986485521649
H        -4.40767060965293    0.35222637048945   -3.12562263235932
C        -4.74410929491511    2.85268380178124   -4.43804877224381
H        -5.81128346642255    2.71643112350915   -4.61887071178163
H        -4.19072792760129    2.19191559745266   -5.10086722946087
H        -4.50592789895318    3.88558222953813   -4.67356071597498
C        -1.90871082886739    2.22296008409578   -1.11233168111711
C        -0.55986858335829    1.50247002216534   -1.07642569980404
H        -0.34443341356745    1.15572554881636   -0.06527786427294
H         0.25947391000986    2.14465011289374   -1.38247828125900
H        -0.60589674231797    0.63581687917962   -1.74600405423971
C        -1.81769232991527    3.57766871034660   -0.41743307137583
H        -1.58710682229171    3.41947213453733    0.63733466510192
H        -2.75768909339798    4.11819371790511   -0.47710491405971
H        -1.03182935442013    4.20129702580339   -0.83271853283590
C        -2.88667222029046    1.34245302126280   -0.33261094501705
H        -2.45525966128494    1.07887780806677    0.63417100689479
H        -3.07749705085691    0.42457747252336   -0.88415601547632
H        -3.82454754554850    1.85244891142418   -0.13631999284092
C         1.21064903384881    0.20394676126692   -5.44307387379016
H         1.16078868459031   -0.50694971933704   -6.25297945270205
H         1.57942599665138    1.18603032905183   -5.68901250296083
C         0.88391277252399   -0.13403927447316   -4.18780582758352
H         1.04927169344042    0.60666453474608   -3.40552581188809
C         0.34889112360915   -1.41637280594751   -3.73853912425018
H         0.61137298260150   -1.61494998489724   -2.69032124628539
H         0.67981472778226   -2.25047667064195   -4.37492210231238
C        -2.46295810115754   -1.90776620077549   -2.12840339972723
H        -1.85621509876190   -1.37271549196969   -1.38102262960469
H        -3.53221594555696   -1.80489096436955   -1.87766793532737
C        -2.07961594548752   -3.32270498644369   -2.12031487128334
H        -1.00600746624642   -3.52831973148941   -2.13548801130103
C        -2.91474761605485   -4.36143020500307   -2.03731080296078
H        -3.98133355690743   -4.22216867610893   -1.95094615537692
H        -2.56796281312803   -5.38142374997254   -2.04697960768603

