83
CSD_code = TIGXOW | q = 0 | S = 0 | Stoichiometry = C28H52NPZr | MND = 10
Zr        4.03578937036660   13.89201755945020    3.54118981945450
P         1.63003164174935   13.82974299737732    5.84300926088500
N         2.95752470351356   13.43339924335236    5.18275643661492
C         6.35498254594812   14.27191267365071    2.65218342299303
C         5.94418741370967   15.52769115499157    3.16822048683620
C         5.81942745380022   15.40956649199968    4.58116152074381
C         6.13182387146826   14.07312538434590    4.93584022941348
C         6.44960780665823   13.36780251744668    3.74410743449422
C         6.74624123996960   13.96728674133480    1.22956609947472
H         6.90877716385310   14.88772504275136    0.67130627264284
H         5.98632779317636   13.38234771689803    0.70242545887643
H         7.67967387280185   13.40309937866544    1.20898635514728
C         5.81668205082266   16.83138034269164    2.42398792967499
H         6.62360773223425   17.51260254985303    2.70701342692348
H         4.86871414410185   17.32963471125205    2.64878044399401
H         5.87005218577791   16.68085469718466    1.34738004810430
C         5.67507805160037   16.58546389109607    5.51026890001151
H         6.62635945082297   17.12148780990120    5.57837071457015
H         5.40698183974091   16.27119977437172    6.51742201806281
H         4.92686974204076   17.29576354846348    5.15419895533145
C         6.25632319757313   13.49303334752495    6.31794231825467
H         7.30942553054833   13.38838001052460    6.59399756958030
H         5.79877609170468   12.50189762897906    6.36726409548592
H         5.77830237265241   14.12889185691887    7.06077186904115
C         6.91491957628951   11.93508384833709    3.70426401594637
H         7.85030795887395   11.82247671529005    4.25899288939194
H         7.09069061309079   11.61009432580417    2.67992859903381
H         6.17550383719579   11.26541209210824    4.15796440186293
C         0.90196079635304   15.50037034000209    5.13523417328661
C         2.09404293371955   16.42347205530378    4.86021052957848
H         1.80719280541945   17.19850413378125    4.14605269114611
H         2.92064536124919   15.82287069396141    4.42094703710279
H         2.44425299630352   16.92048448206246    5.76054468681512
C        -0.14968780667984   16.22601260699289    5.96988955631899
H        -0.54953901935149   17.06120679754854    5.39227419358928
H         0.26283104207956   16.63225238039582    6.88906236592610
H        -0.97556427458109   15.56828844309131    6.22258283322525
C         0.30190018516323   15.15291636924024    3.77253699417019
H         0.14667736960085   16.06213055414040    3.18899504195493
H        -0.66568206620120   14.67145829051250    3.87448436372061
H         0.98586900242150   14.49766415201699    3.22685573167901
C         1.92148858855679   14.06514526029758    7.74951903516434
C         0.70907159254343   14.12134455137054    8.67109580420375
H         1.04471705492326   14.35745168038021    9.68239187045057
H         0.18998036418491   13.16775954733179    8.71393028252762
H         0.00362382441314   14.88774324588428    8.36450665561329
C         2.71646366169523   15.36489534053760    7.87691815090062
H         3.17994859652196   15.42901168501042    8.86259026710606
H         2.08801948824036   16.24273183088952    7.75885634306334
H         3.50271221862551   15.37004036607071    7.12277181943149
C         2.86728842503357   12.93963225718194    8.17714745246360
H         3.46998333085292   13.25238976151024    9.02971479179089
H         3.53329019760280   12.70777164835985    7.34596795357576
H         2.33829573051882   12.03813919841953    8.46718760513616
C         0.27432143004808   12.45770432669227    5.60975119856802
C         0.35923771393777   12.00530707220071    4.15006849561050
H         0.04537937288088   10.96549616890496    4.06159531116974
H         1.39664439698037   12.08536848147129    3.80952438095685
H        -0.27552223742629   12.59141698601622    3.49374353685514
C        -1.16450784515752   12.79166657267979    5.98797091889115
H        -1.76980227366234   11.88764309363816    5.90519075095545
H        -1.59805953952400   13.53636291344596    5.32644019301725
H        -1.23911906945848   13.15177974385215    7.00948223914736
C         0.75545810492864   11.27729248421702    6.45385094241489
H         0.21704873965517   10.37141237604564    6.17295832017487
H         0.58431041924197   11.44022299857702    7.51336790734944
H         1.81724628430012   11.11512058352077    6.27460478595937
C         3.74703670162588   12.01400633560999    2.38465184208594
H         4.62233227895050   11.80638724706149    1.73991783150088
H         3.54011392990235   11.08402460004519    2.94738830263457
C         2.56668030222117   12.33902506210582    1.49902031934520
C         2.24174411491830   13.61392429880747    1.21432996311772
C         3.07690508432475   14.75853512940415    1.73340809498014
H         2.48719758960782   15.69176878001131    1.71650676216980
H         3.91550620995385   14.90753199901001    1.02387417069754
C         1.77986326922456   11.18510932567202    0.91794986668869
H         1.84402726494765   11.18494088442843   -0.17175867144001
H         0.72364187499367   11.24918468454456    1.18174377501038
H         2.16407508469838   10.23405822872605    1.28036734166271
C         1.06421631869675   13.93145979274629    0.31893405560512
H         1.23793594853806   13.55720971864936   -0.69151921572637
H         0.89931107006696   15.00526411029333    0.25683626554202
H         0.14840580933680   13.46471427670838    0.68403109228079

