84
CSD_code = TIGZIU | q = 0 | S = 0 | Stoichiometry = C34H44Cl2N2ORu | MND = 5
Ru       11.99656297401249    0.85053377195093    3.21835965481223
Cl       12.60068575453679   -0.28373674528249    5.11250817493287
Cl       12.36153759638127    1.90200299951034    1.20927024147719
O        12.61695521380623   -1.02280258869848    2.13522599523593
N        12.49478159653191    3.18834324635497    4.77867583488848
N        10.38636306951458    2.75199070593615    5.00940565671095
C        11.49340837704678    2.40703991125369    4.35084092752264
C        12.08425332881792    4.17147660330063    5.77072584951497
H        12.22021449540741    5.18624594233018    5.38077495098278
H        12.68094867403256    4.06870495224898    6.68091523178141
C        10.61292616977705    3.81274553255054    5.99006951182704
H        10.42401097151667    3.43098871350063    6.99825597093265
H         9.93349001642996    4.65077886174295    5.80728186752398
C        13.77536080184489    3.23745670558365    4.15543649365636
C        14.87679247965494    2.62506324323008    4.76235082466660
C        16.09529704701947    2.64696203048809    4.09513681822825
H        16.94467920778743    2.15346369224893    4.54629211249286
C        16.24596234673439    3.28581535643425    2.87483517470203
C        15.15993013708333    3.96722667533350    2.34126685288808
H        15.27685762976108    4.50630266791875    1.41242299378126
C        13.92419842165583    3.96819622703756    2.96776348968133
C        14.78106879654454    2.01801416337566    6.12827531621081
H        13.85798399615198    1.45521859281687    6.24913593267830
H        14.81090110496082    2.80511196644052    6.88368024212474
H        15.61838853796425    1.34815581037860    6.30613455721616
C        17.56146373221295    3.28692915357329    2.15744100327387
H        18.00796403289691    4.28085742762321    2.19305694836927
H        17.42378559615256    3.02216195919996    1.11046771613671
H        18.25433646341622    2.58243061803611    2.61095437893805
C        12.80131844449784    4.79166800024725    2.41211901374560
H        12.95759294414533    4.97186927167193    1.35230759491584
H        12.76237685752195    5.75582406020805    2.92469739683983
H        11.84471472347306    4.28885249917864    2.53189370771757
C         9.06087836223330    2.27355449178479    4.82907774495535
C         8.58327137294167    1.23053864192992    5.62675679711323
C         7.26303208014625    0.82986125630732    5.46527609407313
H         6.87026707372274    0.03000896935316    6.07362701598465
C         6.44630596772284    1.43518580982330    4.53046770447240
H         5.42431216192308    1.10566141460757    4.41232182195243
C         6.93574722509950    2.45869480654679    3.74191614961517
H         6.29226752612980    2.91576034247347    3.00661721863529
C         8.24278354130315    2.90428222621961    3.88552256465532
C         9.46826272954288    0.52988881429353    6.62716301576492
H        10.48880541096793    0.90758728370223    6.52207998986610
C         8.98359432742629    0.79696536827787    8.05438801208028
H         8.92962749900536    1.86618294389857    8.25320034590492
H         9.66560530887930    0.34488735696234    8.77060049985801
H         7.99352326531414    0.37471447163170    8.20970447811992
C         9.51842106077890   -0.97158316271641    6.34092748351153
H         8.54735243225415   -1.43991397681904    6.48031435867964
H        10.23333348883848   -1.44783779410733    7.00686896689858
H         9.84561466821731   -1.13828447275631    5.31626122231732
C         8.77011164692180    4.00762144370206    3.00048871492833
H         9.73018548605891    4.34915929022523    3.39576234366278
C         7.82820998555443    5.21285025022599    2.95992260310517
H         6.90857500003164    4.97754159141976    2.43153721261297
H         8.30959957502885    6.03956340869448    2.44199293735756
H         7.57256513473437    5.53664664713957    3.96732427688312
C         9.01716854038977    3.45446796033145    1.59514524430971
H         9.75341470783413    2.65215924767505    1.63372411447695
H         9.39465837831056    4.23815236752330    0.94243284176697
H         8.09749898146358    3.06016874449429    1.16990583322266
C        10.30581813507379    0.07183988447510    2.85818629834207
H         9.32074126605980    0.48106763107725    3.08840340225713
C        10.30056586962898   -1.20105719296793    2.23234110182841
C         9.12087914053450   -1.92303317907738    1.98916647597499
H         8.18009051163817   -1.48367078445243    2.28775939831893
C         9.16077005601154   -3.16348041734375    1.39125737935449
H         8.24596657462245   -3.70761421330599    1.21140248780163
C        10.37796778055757   -3.71637881229701    1.02045444417035
H        10.41004039942893   -4.68949995665998    0.55402637557660
C        11.56513639658654   -3.03349480405595    1.24052886562783
H        12.49638188490927   -3.49220895797353    0.94608981171151
C        11.53842498851147   -1.78512703432671    1.84066971747003
C        13.92387210408203   -1.34365647552201    1.66660117907086
H        14.13657243908379   -2.39838002232621    1.89863351074602
C        14.87560064396668   -0.44698875518884    2.45231153708458
H        14.61123520936256    0.60292408334237    2.28726759770263
H        15.89991921421915   -0.59574610966342    2.12186393540772
H        14.81354673628859   -0.66951095321829    3.51772820109896
C        14.02985868574159   -1.08484844912278    0.16470560209840
H        13.33071862557042   -1.70602702452143   -0.39081421328238
H        15.03902269544943   -1.29689302190505   -0.17836657348859
H        13.79496616461674   -0.04099320551250   -0.03722257805314

