67
CSD_code = TIHBER | q = 0 | S = 0 | Stoichiometry = C29H30Cl2N2OP2Pd | MND = 4
Pd       10.72119344067378   15.14430061371946   -2.39399795092053
Cl       11.95446091029171   13.61313667834278   -3.53429058068761
Cl        9.52755578625097   13.58970301954143   -1.24607584472868
P        12.11417440491008   16.67407977579389   -3.19727815259913
C        13.66028240051040   16.14953481504285   -2.38596756898828
C        13.52042664098194   15.55998498782594   -1.12693765524290
H        12.52371866800283   15.46568675002374   -0.66846398792650
C        14.63239401500996   15.08294967950341   -0.45883124736296
H        14.52159083244305   14.62169649779759    0.51119961162771
C        15.88657189080498   15.17972503615789   -1.04330710281426
H        16.75230092772152   14.79320533801855   -0.52680677766271
C        16.02744518242163   15.75682281108430   -2.29331758243892
H        17.00250096362298   15.82194578251295   -2.75296723489714
C        14.91903457860000   16.24181627228404   -2.96689921219141
H        15.03236792373310   16.67527115189024   -3.95146909602246
C        12.53103040365498   17.01037260797350   -4.93085059274436
C        12.20075232958790   18.22213274419186   -5.53214649157483
H        11.72754507148928   19.00502301332507   -4.95604639875773
C        12.48159510911807   18.42454647733933   -6.87147389363710
H        12.23244379928921   19.36824288657426   -7.33394040902486
C        13.07513814245013   17.41932410175071   -7.61761460251983
H        13.29213803030816   17.58196607430390   -8.66290074893834
C        13.37889172103197   16.20218826461754   -7.02719215267197
H        13.82675770617358   15.41335042876561   -7.61264881329488
C        13.10464643934227   15.99012361223951   -5.68896420437781
H        13.30931305392118   15.03661310724600   -5.22218075007712
N        11.87062084852931   18.21900701031900   -2.50590592871214
C        13.05274998976492   19.08631740866840   -2.40349980435189
H        13.86223783515046   18.63938845978277   -2.98360137841135
H        12.81188745071225   20.06458379906679   -2.82683927417454
C        13.46398041706272   19.24487105809931   -0.94659489394044
H        14.34645645481016   19.87534074596950   -0.87906815408962
H        13.68734848931562   18.27564783864621   -0.50575068796440
H        12.65899195836373   19.71010890140612   -0.38324162751385
C        10.66703419008024   18.90196049433456   -2.42630961243319
O        10.64947281883468   20.11563143728160   -2.44418386930455
N         9.48416164653404   18.18796161473308   -2.32352836656945
C         8.27732474607718   19.01952318845856   -2.43389872275006
H         8.49319320366869   20.01149033973914   -2.02929392885226
H         7.48461683750799   18.56014644612044   -1.84048654255496
C         7.85230958395289   19.14157548373923   -3.89033260309642
H         6.95229688566117   19.74624756460561   -3.96226780072226
H         7.65289326135465   18.15918843380931   -4.31312741491159
H         8.64041358119899   19.61921757573925   -4.46696589902655
P         9.28931482717313   16.64618483625978   -1.60989039013803
C         8.88500976498039   16.99503632003468    0.12421064305871
C         9.18348563622573   18.22511360577469    0.70457507919236
H         9.62192872813597   19.01528540421543    0.11120057501056
C         8.91570802636548   18.43620862078158    2.04527243235998
H         9.14014231948186   19.39375572682846    2.49170626963022
C         8.36695577976839   17.42207863602272    2.81332157450652
H         8.16022819473517   17.59152880273125    3.85960940834843
C         8.09490365027372   16.18775234777814    2.24342178304986
H         7.68206517444046   15.39259218449137    2.84584314034740
C         8.35645289155142   15.96681512997544    0.90408756390596
H         8.17651608809130   15.00099171128528    0.45254557018468
C         7.74859916419592   16.06974261689321   -2.39510142129850
C         7.88991501701051   15.46725150413597   -3.64780505683136
H         8.88344311502838   15.39410933878004   -4.11684148000996
C         6.78389406753613   14.95068688634698   -4.29584116661591
H         6.89592859790092   14.47927750975499   -5.26081255935990
C         5.53457860862214   15.02092202661711   -3.69735935537486
H         4.67389105068189   14.60363785790041   -4.19809843794510
C         5.39246124167222   15.61072294682536   -2.45343127375692
H         4.42144490602309   15.65495418150562   -1.98287138306998
C         6.49489953140204   16.13514892203111   -1.79981488250070
H         6.38157304775081   16.57855255464755   -0.81966068284868

