109
CSD_code = TIHBAP | q = 0 | S = 0 | Stoichiometry = C51H52N2O3Ru | MND = 6
Ru        5.10092566550231    3.55676077555004    4.94356637351960
O         4.27275153958926    4.21445958348464    2.91418576329194
O         6.54071232580594    2.14429715305799    3.90349225024447
O         4.72074307551673    1.29098615002211    4.73495490408383
N         4.98471184579695    2.41766979630632    7.56796024344786
N         6.76289250831890    3.67381036498445    7.50500893417985
C         5.73667713172382    3.21578116714423    6.78050184542522
C         5.42731066737153    2.42967192405087    8.95863298337742
H         5.53224379888134    1.42507461508089    9.36556535105234
H         4.69780893210496    2.97578503701062    9.57013684383148
C         6.76900379974854    3.15350187599225    8.86855424400568
H         6.87265516653713    3.95803994760995    9.59823528345883
H         7.61800470133943    2.47067932944414    8.99614531249427
C         3.70070283714154    1.94487376047853    7.19526538463576
C         3.26930257070996    0.66065291133677    7.52346120105697
C         1.99296541463032    0.26279428122549    7.13623518586866
H         1.66347854921042   -0.73494332148663    7.39136323736190
C         1.15182955561298    1.09267810020005    6.41776478925637
C         1.61193989115418    2.35442163448477    6.07080212012979
H         0.96501065680579    3.01388487276319    5.50804773112956
C         2.87668785856877    2.80136285151439    6.43196181520147
C         4.13135774896815   -0.34483957713486    8.23304471734645
H         5.16573321318908   -0.27726574270720    7.90512269198727
H         3.77717986473305   -1.34991188113214    8.01299981803916
H         4.08607249780983   -0.21064932064254    9.31523621215498
C        -0.21080454150002    0.63801271718319    5.98891290076912
H        -0.49728530531121   -0.27578488114260    6.50375533808421
H        -0.21909812171798    0.44495297051466    4.91593021600928
H        -0.95482313521368    1.40548629441145    6.19558998214878
C         3.37590796932568    4.12904858433848    6.00441951556459
H         3.57601402638248    4.76276124272933    6.88126510826281
H         2.62711107797400    4.64349721052164    5.38680963107871
C         7.73733687138210    4.64784907162038    7.16139639346361
C         7.58824478341087    5.94599029010852    7.65830071120924
C         8.56698836496482    6.88894117905861    7.37943191365868
H         8.44860659775709    7.89392708543679    7.75989998753723
C         9.67715156776660    6.57412069594694    6.61215397212347
C         9.79535466162142    5.28300049311380    6.11828094668341
H        10.65100613972835    5.02889086646652    5.50926432027073
C         8.84574377378510    4.30809443184410    6.38347795489965
C         6.37269061702175    6.34882671364533    8.44078460249136
H         5.51063391469752    5.75979577453932    8.13551858643299
H         6.15174238502696    7.39978236575942    8.27034920065914
H         6.53255054214238    6.21551387570044    9.51167947920635
C        10.71759217141154    7.60474561495655    6.29437673260998
H        10.64555995865730    7.89538418134018    5.24639840114201
H        11.71645716561945    7.20555869532266    6.46017966396119
H        10.58779558872486    8.49339391758798    6.90690310960252
C         9.00037424758338    2.93094627364764    5.82622051752344
H         8.93421530931731    2.17829980294055    6.60990803192437
H         9.95655342437689    2.82509590747654    5.32082624087816
H         8.20711118647503    2.74233733841116    5.10084689502855
C         5.77724524207881    5.32018023263278    4.81309702049478
H         6.33596670895466    5.91593140537654    5.53756540309511
C         5.62525831310726    5.99770162857299    3.57163211622444
C         6.22435810226340    7.23898246792806    3.30592310060917
H         6.81607558899177    7.69833759883390    4.08495516467273
C         6.07839988390434    7.85486973357169    2.08189388558019
H         6.55083769814202    8.80677256047625    1.89005795663877
C         5.32287664218896    7.24554969483860    1.09261155728518
H         5.20469102065216    7.72068533393935    0.13015076108860
C         4.71086017086226    6.02019690743452    1.31919470739905
H         4.13572938157690    5.58296112383925    0.51773197010579
C         4.85114323727931    5.39233622320664    2.54666142900371
C         3.54981336548856    3.46054560200503    1.94255071638896
H         2.93087607237725    4.14955808759131    1.34897108997616
C         2.62727076472452    2.51371491835789    2.69833015639170
H         3.19455689825666    1.91309671115055    3.40870759369800
H         2.12268498678321    1.84603387698524    2.00479866767593
H         1.87877104373409    3.08112729386920    3.24612068006363
C         4.53698997234014    2.71612025392468    1.04616579031142
H         5.08007430562023    3.40488584336459    0.40215774617105
H         4.02044872083223    1.98719143530086    0.42724033156960
H         5.26561840914550    2.20410509667762    1.67266155168780
C         5.83367377935661    1.15053979893268    4.20068741055198
C         6.41864215821063   -0.25940806529479    3.91255945467889
C         7.11721231214035   -0.76725363513714    5.16528607648638
C         7.19940623793916   -0.01823341695712    6.32920030362130
H         6.76523929882552    0.96976577796726    6.36300986166349
C         7.84166278295147   -0.52322079841539    7.44907283848545
H         7.90203846386783    0.07288751517534    8.34981358188405
C         8.40675443957531   -1.78438433473003    7.42245356717013
H         8.90602469386010   -2.17633046427622    8.29645235241996
C         8.32806931965778   -2.54018871588920    6.26412411995459
H         8.76732499334718   -3.52656109952839    6.23160471603767
C         7.68940381551149   -2.03656766832875    5.14753720420554
H         7.63555460877011   -2.63191005129418    4.24817734263112
C         5.35005594880298   -1.29760151648261    3.60171897741192
C         4.20223426618381   -1.38246447107095    4.38338792273576
H         4.03787661845427   -0.67466332772283    5.17858819282628
C         3.24859766488697   -2.35426855698318    4.13762784973157
H         2.35660421035438   -2.38617767064530    4.74669732446906
C         3.43631768441762   -3.28400558083980    3.13072651909315
H         2.69320221377682   -4.04511902445505    2.94108341070683
C         4.59643590909837   -3.23821974222336    2.37813418925739
H         4.76985724308004   -3.97119963410176    1.60286981964007
C         5.54519560599472   -2.25919364411592    2.61416796974315
H         6.44760907547091   -2.25380925701778    2.01962861378497
C         7.40408989350001   -0.03793904044520    2.78040641878700
C         8.76348694095685    0.11439282887112    3.01764937115267
H         9.15000704032527    0.02044153692366    4.02167989296061
C         9.63301547712597    0.39570647807031    1.97813995278163
H        10.68820197246841    0.50899748587409    2.18194399355702
C         9.15820043999994    0.53903864363764    0.68703870634254
H         9.83783572671219    0.76029597151421   -0.12300579493498
C         7.80200897850864    0.40666547434857    0.44278144964547
H         7.41610789351646    0.52745259492204   -0.55952460470023
C         6.93390507671905    0.12533009253402    1.48095744974634
H         5.87696762812654    0.02177648519204    1.27891855957272

