89
CSD_code = TIHFEX | q = 0 | S = 0 | Stoichiometry = C44H39Cl3N2Pd | MND = 4
Pd       -0.31278687521653    7.44004970719883    7.20642496244928
Cl        0.10360665409754    8.88732219903252    8.89078837335437
Cl        1.49186947038385    8.32287274822559    6.21709192259102
N        -0.88552480255465    5.91407786371650    5.82209430123611
C        -4.02514385053894    5.54486358604125    7.83848768572493
H        -4.27975123341638    5.96319828452898    8.80854518224012
H        -3.98964265937294    4.45960380962469    7.91896900607445
H        -4.80569428604522    5.80745014358740    7.12770362160137
C        -2.30615253320003    4.25749431463932    4.12076436623557
H        -2.86987173246155    3.63525152572512    3.44077303146353
C        -3.82619794952004    7.94379277699739   11.56590877706534
C        -2.08489747420155    6.73173159362399   10.45383776907798
N        -1.96629854813240    6.88495856004916    8.03866610190802
C        -2.81259214628774    7.00133591221664   11.60189469699553
H        -2.58766431438745    6.48678398545575   12.52184794922682
C        -2.15240998531619    5.55540610435045    6.12187252742430
C        -0.98712897121843    4.58125773886623    3.83876109969503
C        -0.29444805426112    5.39514108033849    4.74695189930858
C        -2.88445097672749    4.71433921206899    5.28580861188692
H        -3.89464746827134    4.43924493542810    5.53472690079829
C        -2.69462020589768    6.05655277513719    7.36980687524237
C        -2.44598158407096    7.38511676313749    9.26270603847824
C        -4.00702818729980    8.75293131176803   10.45731174314519
H        -4.69953328446035    9.57747176061666   10.50497246558287
Cl       -4.80350791364048    8.19503949577230   12.96915856413665
C         1.15196457980710    5.67791063528600    4.51444939138123
H         1.67767864240482    4.73994914270507    4.31983521455616
H         1.56544473708929    6.13323313395995    5.41595588184011
C         0.02301831329391    5.26478344512026    1.63807488412049
H         0.08717081346178    4.87520018334560    0.61962173531663
H        -0.77833897066353    6.00673775589070    1.65782002834515
C         1.35222959118772    5.93366770372666    1.98032718364481
H         1.57815621874074    6.66921468535845    1.20496653118431
H         2.14530019603658    5.18168735522579    1.95659256465774
C        -3.28995199211302    8.51081762633374    9.29489363593202
C         1.36681805042349    6.63415427277897    3.33456685966070
H         0.60284958491387    7.41207656337349    3.36777280281654
H         2.32975658845964    7.12686915775403    3.46954798286206
C        -0.34180075341387    4.10374203974203    2.57543515969435
H        -1.03728719927221    3.43585238418512    2.06301880627888
H         0.56098674972222    3.53160225072028    2.80251890323602
C        -4.28826387350534    8.33222518585787    6.29448644029994
H        -5.13738710383542    8.14416051784307    6.93680238953807
C        -3.16585947792057    9.56815531838664    8.20494161103167
H        -2.13597014917169    9.93062501809223    8.36835517111674
C        -0.43263830919913    5.46066209273567   11.87819340257224
C        -4.06118200603527   10.76807256413046    8.43531305062609
C        -3.20364733783472    9.04582790844949    6.79066364209127
C        -5.21532974151447   11.02196793031805    7.70929733298348
H        -5.52132848959603   10.35696091845980    6.91686866865837
C        -0.77226222273391    5.96556184985281   10.49143316428958
H        -0.03261848661050    6.75370186101011   10.26622558593801
C         0.70017197158183    3.94569762297490    7.64481459678795
H         1.59533401531559    3.94567742086381    7.04017983316003
C        -3.68333166491087   11.67486541894082    9.42346180716845
H        -2.77778359905278   11.49513246012921    9.98508867213975
C        -0.26031169846439    2.96462822479709    7.46178557372149
H        -0.12647896706828    2.20757100152125    6.70274100319996
C        -0.61398086488732    4.91376993744026    9.42403080176521
C        -2.11136192537348    9.28419935503741    5.94904597442716
H        -1.29523973020672    9.92692628391525    6.28086562492494
C        -1.56480510913230    3.91713767327046    9.23729346110174
H        -2.45048675229162    3.90787734558512    9.85764184232795
C         0.52252020635457    4.92684852207581    8.61102174820068
H         1.30671346058564    5.66828441990903    8.77743783573541
C        -0.24691391065421    3.74459632690957   13.55529488899749
H        -0.36026051501916    2.70903063398170   13.84176207409356
C        -3.18783485147542    8.06684636317165    4.17538997795099
H        -3.18571036124500    7.68083733238138    3.16613851703895
C        -4.28162610506678    7.84930210714740    4.99636111320338
H        -5.13440995400818    7.29984815404942    4.62239980822231
C        -0.57326999497780    4.13669347420955   12.26714372429977
H        -0.92704997236144    3.39646929384848   11.56579343781268
C         0.22191172256089    4.66889685756606   14.47088732549983
H         0.47436131693923    4.36001592092442   15.47442177726208
C        -5.60808135210979   13.02954006946983    8.97011590636178
H        -6.20906960100360   13.90275864303930    9.17614835140800
C        -2.10639979352388    8.79215498437341    4.64849243053859
H        -1.26270449403123    8.99989365319074    4.00461777057142
C        -5.98239157591844   12.14489939177448    7.97568454260472
H        -6.87719795319257   12.32727042119743    7.39829896531611
C         0.37235357972011    5.99216291014260   14.08943604247261
H         0.74388963372453    6.72060834333212   14.79468360455621
C         0.05130645476979    6.38211244038940   12.80317185395525
H         0.17123143537163    7.41406344651910   12.50608309756554
C        -1.39242253354813    2.95316410387355    8.25861019718998
H        -2.14036100182237    2.18457712634615    8.12192959334510
C        -4.45069112787117   12.79169415204549    9.69337904295045
H        -4.14302742797910   13.48094047492291   10.46579468464890

