115
CSD_code = TIHLIF | q = 0 | S = 0 | Stoichiometry = C46H61Cl4N2PRu | MND = 5
Ru       -1.25557004116447   -4.81476896798369   -1.20081092009833
P         0.44385113374194   -3.59129686565951   -0.11301278657186
Cl       -1.30704880072431   -6.43914126841878    0.51657863745957
Cl       -1.52220573151155   -2.96366385170071   -2.65433626050601
Cl       -5.00817398984103   -8.02997909518188   -4.13750851433775
Cl       -6.87813323586847   -5.98272425235060   -1.89078374583819
N        -3.16023671772385   -6.56692247334022   -2.81014500664919
N        -4.28589433800944   -5.32808999202743   -1.45416608239194
C        -3.02510588178008   -5.61400989031145   -1.85839922583278
C        -5.19750000662893   -6.09255603831747   -2.14899891874751
C        -4.48705288795235   -6.87212470758110   -3.00293614079531
C        -0.10067630174323   -5.61036088557664   -2.50680057139940
H        -0.12860621177007   -5.08933112597705   -3.47400209590230
C         0.88042232916696   -6.64751109218365   -2.51852141011087
C         1.75104821744433   -6.72976146158465   -3.62313400462636
H         1.65441785510728   -6.00804328276678   -4.42176278032356
C         2.72901517220645   -7.69775022643080   -3.69358377903635
H         3.39230816351341   -7.72971696045822   -4.54610191774602
C         2.85861184380230   -8.63354530642859   -2.67833700925716
H         3.62046881347763   -9.39733500082155   -2.73824275739617
C         2.00507292597074   -8.58071994045238   -1.58651138349278
H         2.10144595525083   -9.30773437641253   -0.79343373855612
C         1.03742505928523   -7.60246625645113   -1.49879765609141
H         0.38574191273342   -7.56804362196393   -0.64160280734636
C        -2.14535942369284   -7.22271813156492   -3.56409722527694
C        -1.77924513244243   -6.69063431741424   -4.80134120696542
C        -0.85209927054962   -7.38932321648354   -5.56003944165336
H        -0.54945013100146   -6.98869950094243   -6.51692330678411
C        -0.31771942406600   -8.59345905452475   -5.12386592753163
C        -0.73419202363031   -9.11253258378502   -3.90539267822340
H        -0.33469444333578  -10.05772652194404   -3.56842514735464
C        -1.65559827699583   -8.44877085977411   -3.11177969827693
C        -2.13071652303658   -9.02326839773723   -1.81674229974135
H        -3.19217191552890   -9.26551059587329   -1.87244905274686
H        -1.99341167171427   -8.30487107368182   -1.00914202631658
H        -1.58101819772487   -9.92818797357962   -1.57551255135970
C        -2.38758555259671   -5.41243217640391   -5.28652539597427
H        -2.25781513338218   -4.61710975483246   -4.55159331626995
H        -3.45766702325925   -5.53980281957431   -5.45076818255786
H        -1.93108161552372   -5.10038565520089   -6.22167348965429
C         0.66115464894256   -9.34938438385086   -5.96826329137124
H         0.14778179776984  -10.14195294795903   -6.51332216440681
H         1.42532153322436   -9.80960286113742   -5.34620358553352
H         1.13927892533368   -8.69428269983297   -6.69175551071237
C        -4.75296724892635   -4.39165659275591   -0.48215137177542
C        -5.13058108310859   -3.11712705100315   -0.90808456648815
C        -5.71157528307218   -2.26565239142559    0.02202294168333
H        -6.01192112041466   -1.27651368803266   -0.29358740649378
C        -5.94033078571022   -2.66416839001815    1.33086509717050
C        -5.57919335728685   -3.94943320185913    1.71192905498880
H        -5.77855625516535   -4.27841886808762    2.72200412176858
C        -5.00035439536279   -4.83794193404970    0.81817877964653
C        -4.68546790428049   -6.24199448755494    1.22210035871415
H        -3.61937069508611   -6.44787512699157    1.11787580057760
H        -5.22138471133095   -6.95221591934001    0.59227357164336
H        -4.96818250010276   -6.41445751839847    2.25689775808558
C        -4.94122707673453   -2.69329161191833   -2.32814267102939
H        -5.44097006261280   -3.38373462641332   -3.00748077616110
H        -3.88091760237424   -2.68166625188917   -2.58867057693517
H        -5.34445865281116   -1.69690749501394   -2.48658118873296
C        -6.59738545086854   -1.74319002241193    2.31255871174727
H        -7.63842550954032   -2.03352047998763    2.45568512383778
H        -6.57491822773714   -0.71571716720656    1.95876472204676
H        -6.10133134619312   -1.79447518182199    3.27974653803643
C         1.56052806864238   -2.47176540512680   -1.09782204645625
H         0.84089979970363   -1.78218624399156   -1.56176078035819
C         2.26927493541748   -3.17337704625379   -2.25474046968444
H         1.53602975806062   -3.74776702726834   -2.82384180614315
H         3.03037231697921   -3.86437897418963   -1.89111542508724
C         2.92485443279202   -2.12924839486189   -3.15562561469096
H         3.44000480621561   -2.62516263958274   -3.98096476646449
H         2.15252974998783   -1.48461720606218   -3.58063508886963
C         3.91458506812405   -1.28315160968708   -2.35943617315694
H         4.72046343778127   -1.92216900197212   -1.98937001877861
H         4.36099952697875   -0.52438467632061   -3.00552215820234
C         3.21869560941000   -0.61290890812918   -1.17825560308734
H         2.45618902909563    0.07513780271768   -1.55108431556546
H         3.94111099070950   -0.03106512698922   -0.60082193022072
C         2.56188124933028   -1.66011377359375   -0.27973324961843
H         3.33755092114221   -2.31764443305124    0.11627529999352
H         2.07078158265423   -1.16834598657594    0.56259783707507
C        -0.49058206904404   -2.38217030474129    0.95757095837002
H         0.14853997927693   -2.08197496569974    1.79683296209328
C        -0.96533663687189   -1.11245875052064    0.25040410982521
H        -0.11668246202983   -0.53510319600484   -0.11892882358624
H        -1.59758557795134   -1.37057216879819   -0.60275922441121
C        -1.75351011227245   -0.24488252431346    1.22943373288991
H        -1.10229140262629    0.05204252199030    2.05683153856817
H        -2.08473154920949    0.66436582820721    0.72363514774046
C        -2.95803150373103   -1.00266793737813    1.77339003134805
H        -3.50473269496070   -0.37931000645140    2.48422020863463
H        -3.63052640985818   -1.24168687005600    0.94817154530798
C        -2.51761581479547   -2.29638289364808    2.44910718283605
H        -3.39021213067589   -2.85521417589712    2.79179071323113
H        -1.90267544362291   -2.06187440853182    3.32282163553615
C        -1.70223327865722   -3.15399502376331    1.48983100100134
H        -1.37857679902598   -4.06694805195450    2.00115374577487
H        -2.33910387086997   -3.44838967195825    0.62819844224113
C         1.44776800305533   -4.56672375731268    1.13204561343293
H         0.74154984850817   -5.35172920858058    1.43921879302917
C         2.61066571318506   -5.26622705378897    0.42740055471159
H         3.38981614730770   -4.54073957615632    0.18488027018674
H         2.25732229518237   -5.72081611441471   -0.50056809679205
C         3.20799993226815   -6.33330715213104    1.33854931068714
H         2.44372598114538   -7.07674267392452    1.57169818811779
H         4.02727882832073   -6.84207227973138    0.82579454693020
C         3.70981572217671   -5.68919187684808    2.62691458767876
H         4.51488269239737   -4.98762909905414    2.39294204672081
H         4.11599849551699   -6.45067922644770    3.29573246751623
C         2.57375927849328   -4.94566760670756    3.32181884494512
H         1.80212864572001   -5.66253831016724    3.61139912061926
H         2.94413267778680   -4.46575795195610    4.23094463729016
C         1.95142119667522   -3.88935005914731    2.40586050366102
H         2.69703565784798   -3.12779190360431    2.17150118296063
H         1.13401826331103   -3.41355442702012    2.94988118227901

