107
CSD_code = TIHLAX | q = 0 | S = 0 | Stoichiometry = C36H66Cl2P2Ru | MND = 4
C         1.82054525914880   -2.29536513482452    1.66481632850369
H         2.69152962493372   -2.50011890970096    2.29850878657059
C         0.72553855344590   -3.31912079619012    1.96581194163558
H         0.47698137517858   -3.30728081348563    3.02854908817598
H        -0.17548531186037   -3.05876622774340    1.40130208471402
C         1.17421692065730   -4.72728670228382    1.58112895972037
H         2.03810965483931   -5.01218334004087    2.18800230711701
H         0.36902752350330   -5.43336155258849    1.79402998624708
C         1.55022631786586   -4.79502393611970    0.10541330008821
H         1.87249788389778   -5.80557199695520   -0.15383617999411
H         0.67468059289006   -4.55391022419307   -0.50199019003074
C         2.66258077521358   -3.79624074207846   -0.19271780309825
H         2.92444136851158   -3.82688012197765   -1.25239841792849
H         3.55467957660668   -4.06167510455532    0.38070829629882
C         2.22031750394463   -2.38882037296129    0.18681776370878
H         1.33608271482565   -2.11103453133617   -0.42537028774133
H         3.01817411159722   -1.67505910553896   -0.03722213028864
C         0.28711307247960   -0.54864607388352    3.50138791452750
H        -0.45930653319783   -1.33502483819979    3.31949031600923
C        -0.49847582944086    0.75246695131120    3.67704596733238
H        -1.01504182391660    0.99691062614980    2.73988123414135
H         0.17128094172911    1.57869045341969    3.92069215703119
C        -1.51284353173559    0.57870804504915    4.80363420402924
H        -2.07249197122427    1.50548709793098    4.94742557880108
H        -2.22355424570454   -0.20280100137819    4.52719337574467
C        -0.80545721623483    0.19401727094131    6.10127995215443
H        -1.54152450858295    0.03809138433919    6.89259820608066
H        -0.15164923364838    1.01307312686903    6.41223487510907
C         0.02871865737426   -1.07139942868355    5.91475408077180
H        -0.63095910309208   -1.90864128637521    5.67525505089783
H         0.55158818522942   -1.31165126649619    6.84350034012583
C         1.03942115917962   -0.88089986895511    4.78430148545144
H         1.70488410343693   -0.05765398981778    5.04910083823008
H         1.64250150711644   -1.78316180710880    4.66009385428460
C         2.83165590095560    0.40554945297424    2.09498385212944
H         3.26040970132016    0.32582409432741    1.08445528534320
C         2.52027935131636    1.88482562729699    2.32575176666885
H         2.17172959940167    2.03801368590787    3.34931454420240
H         1.72608162950726    2.20233570769502    1.63811358961866
C         3.77760119527014    2.71709215776134    2.09824868910959
H         4.09769727498938    2.60306521531359    1.06078191457755
H         3.56221475775855    3.77410826293203    2.26928907337321
C         4.88822963490771    2.25336488712371    3.03696252544992
H         5.79866030126167    2.82577852793320    2.84814574759760
H         4.58759725863457    2.43816879704451    4.07171625066662
C         5.16701908048666    0.76401272924554    2.85185010836962
H         5.94459228738946    0.44252466767572    3.54882941690274
H         5.53295495339957    0.58931054708399    1.83743187986060
C         3.89901190487656   -0.06023480487266    3.08049934912453
H         4.12957400454384   -1.11809967728344    2.94339027048974
H         3.56618353016766    0.08292711917101    4.10835574515219
Cl       -1.81739540158365   -1.03574366438874    0.96171594036406
P         1.23868466350816   -0.53971986084368    1.90652354016900
Ru        0.00021629164611   -0.00017292556124    0.00091208173213
Cl        1.81390378871209    1.03687403545796   -0.96628275996573
P        -1.23788089914721    0.53963123166228   -1.90581256634781
C        -1.82048742997360    2.29522590386504   -1.66482980373397
H        -2.69147282814924    2.49996865702442   -2.29856822122868
C        -0.72545755608894    3.31896164866690   -1.96581264758299
H        -0.47691066284984    3.30712016894282   -3.02855384910776
H         0.17557301377363    3.05848551467790   -1.40127365036761
C        -1.17419232700671    4.72717267827350   -1.58124620308195
H        -2.03811536524259    5.01199056311281   -2.18812300243631
H        -0.36907009929295    5.43329929633995   -1.79423227300736
C        -1.55019328674505    4.79506636270276   -0.10553877308131
H        -1.87247775773891    5.80563103795403    0.15363885384589
H        -0.67464326939932    4.55401157913650    0.50187736550363
C        -2.66255456968788    3.79630971033221    0.19264891538902
H        -2.92436417514352    3.82700242465660    1.25234247048294
H        -3.55467786948527    4.06175911142537   -0.38073773390247
C        -2.22032024007627    2.38885785393245   -0.18685522549699
H        -1.33612729238112    2.11101871732624    0.42535214279628
H        -3.01824042067356    1.67517189680165    0.03719164016963
C        -0.28713804872751    0.54866066945208   -3.50121952348222
H         0.45931759208058    1.33502075611701   -3.31931250608218
C         0.49851555312873   -0.75241000732830   -3.67689843470474
H         1.01511454699645   -0.99675892632486   -2.73970676583840
H        -0.17120999270976   -1.57867498428446   -3.92049423387622
C         1.51281305971599   -0.57868881091065   -4.80356627692724
H         2.07248492169727   -1.50545750645930   -4.94731736120826
H         2.22352543271356    0.20284339163722   -4.52720602316969
C         0.80541520553046   -0.19411320055901   -6.10124198051925
H         1.54145584785083   -0.03822276600069   -6.89259166560601
H         0.15162136130192   -1.01320778248831   -6.41212110390287
C        -0.02878866618624    1.07129130904330   -5.91477260287443
H         0.63087550383154    1.90856278283715   -5.67534570493636
H        -0.55167112788732    1.31146884568390   -6.84353218367805
C        -1.03941357675971    0.88083519419368   -4.78423292992629
H        -1.70486356824958    0.05756144180781   -5.04898960738076
H        -1.64253646668078    1.78307946353481   -4.66009627044093
C        -2.83117391667740   -0.40538820307043   -2.09458219419301
H        -3.25974003789583   -0.32588159359667   -1.08390678800796
C        -2.52017836053771   -1.88472187611228   -2.32560298067130
H        -2.17168347722639   -2.03783934309261   -3.34919501434177
H        -1.72597129587821   -2.20231605497484   -1.63802767897959
C        -3.77751384632987   -2.71705139657027   -2.09823080018612
H        -4.09766594045645   -2.60314503722694   -1.06077225014465
H        -3.56213993125663   -3.77405695925808   -2.26934703465552
C        -4.88816252957549   -2.25334996789881   -3.03692786609567
H        -5.79859278915700   -2.82578841755138   -2.84816979961101
H        -4.58751432097002   -2.43808654802971   -4.07168698893585
C        -5.16692058619829   -0.76401291267533   -2.85169477304675
H        -5.94450074473559   -0.44253703612836   -3.54868840792880
H        -5.53295256140006   -0.58939802350348   -1.83730158823809
C        -3.89881413120453    0.06021897555967   -3.08007592889162
H        -4.12951691536884    1.11805932160617   -2.94302921140879
H        -3.56611294083882   -0.08284951884486   -4.10799503419508

