82
CSD_code = TIHPIJ | q = 0 | S = 0 | Stoichiometry = C25H48Cl2N4P2Pt | MND = 4
Pt        5.29245426200733   10.32283416340178   11.81349115321612
Cl        5.11422168064455   11.92549978560935   13.46083917140985
P         5.10121745690063    8.69177482046737   13.39075608859751
N         6.54943130153949    8.46267360466881   14.16997546396158
N         3.97806179677656    8.57331619269430   14.63511770976509
C         4.77358124005857    7.16075416407893   12.37639234518435
H         3.78578138964951    7.26411287107993   11.90906926886004
C         4.93474720582819    5.77564685750323   12.99634740636581
H         5.75527847307865    5.79567441687850   13.71265248058636
H         4.03909634993399    5.44175733104040   13.51845704557537
C         5.29279767264637    4.85257514160423   11.81412860935555
H         4.45341537844203    4.20789391402766   11.55441499449971
H         6.13223461939646    4.20799702233317   12.07391696846013
C         6.75374599405566    7.65677076218440   15.35912389519687
H         7.47723490266650    6.86041499924036   15.12990533260021
H         5.79912320439240    7.20156091842233   15.62943978665669
C         7.29638581417352    8.48139592902595   16.52891278212481
H         7.51975294798257    7.81069382932617   17.36122155476481
H         6.53917711158516    9.19206833705889   16.85949118821367
C         8.54819534937612    9.24595512094741   16.10853273658563
H         8.89348008705640    9.87636924283541   16.92935983321598
H         9.34701539978531    8.53881700596085   15.86851491209559
C         8.23893214411805   10.09689210063360   14.88091676737877
H         7.47105160393737   10.83609908453385   15.11536364967495
H         9.13157532809187   10.62684699196074   14.54673840885212
C         7.72757298032886    9.20371880721716   13.75564385536240
H         7.45758818154251    9.81965867294536   12.88130680329862
H         8.51676170870370    8.49819237921357   13.45862824935126
C         2.60897258420812    8.14138082855210   14.39958312292601
H         2.59175440589157    7.35958912679842   13.64131608103157
H         1.98777915596847    8.97861518613524   14.05226629870464
C         2.03801229595581    7.59827751852363   15.71015268294110
H         2.64304826782046    6.74847190581335   16.03356908640137
H         1.01737588080702    7.24929457666386   15.54406359485127
C         2.06424803808823    8.68058189726959   16.78538090311319
H         1.39704628911890    9.49520687354401   16.49563957428509
H         1.71030051446807    8.27660052097189   17.73556155257568
C         3.48497574935383    9.21853120130171   16.92977037095469
H         4.13812452997590    8.42702333543752   17.30359621993119
H         3.50882967437257   10.04768330216870   17.63788003987145
C         3.98725158520036    9.69546159946250   15.57165976886623
H         3.34781357279581   10.50758854499729   15.20607250552569
H         5.00243125164829   10.08930579436853   15.63290318480866
Cl        5.47138064041989   11.92606043994849   10.16703316452229
C         5.81196687054219    7.16077685113855   11.25173136178469
P         5.48435181716936    8.69186675049058   10.23747934888529
N         4.03613387835644    8.46277484716354    9.45827910162879
C         3.83180602908434    7.65688218581199    8.26910568508309
H         3.10832814496514    6.86051085593316    8.49831991883421
H         4.78641542853365    7.20167742598075    7.99873600709259
C         3.28907864924863    8.48143008691964    7.09930706168916
H         3.06567936916660    7.81069841720835    6.26702983716010
H         4.04623645807017    9.19211318670125    6.76865426937572
C         2.03726377027417    9.24595394397763    7.51972989286984
H         1.69189236124201    9.87632368884138    6.69890683837293
H         1.23849736215214    8.53879248440826    7.75984190392509
C         2.34657928099577   10.09692787345987    8.74730601998592
H         3.11439678102800   10.83617251974982    8.51280342205798
H         1.45393245483511   10.62684944882865    9.08152169024645
C         2.85800250169651    9.20382519115984    9.87260779799493
H         3.12798349089974    9.81979092479520   10.74691932146754
H         2.06883098271415    8.49829041966713   10.16965194858049
N         6.60746406290650    8.57340431781148    8.99307336134673
C         7.97656931436571    8.14142524356796    9.22852756483480
H         7.99382093975497    7.35964426952160    9.98680701636575
H         8.59780305008825    8.97865276093231    9.57578614340110
C         8.54748564640741    7.59828430670290    7.91794652794522
H         7.94240962802991    6.74848718241486    7.59458201189086
H         9.56813558857127    7.24928959654256    8.08397658704800
C         8.52119662848681    8.68053853385001    6.84267296838190
H         9.18841209247904    9.49516948951749    7.13234992733141
H         8.87508991576691    8.27651757569509    5.89248592122835
C         7.10046628981567    9.21851556452532    6.69836379254084
H         6.44729027095521    8.42700701756292    6.32459947540220
H         7.07657555946193   10.04764090282079    5.99022511986242
C         6.59823840507483    9.69550261760412    8.05647717284777
H         7.23771938723310   10.50761312857431    8.42201323019817
H         5.58306673760938   10.08937999095848    7.99527733751092
H         6.79974940683126    7.26413441912465   11.71907718593001
C         5.65078548847748    5.77563534072208   10.63187066453653
H         4.83024787732806    5.79560914196519    9.91557455387606
H         6.54644205859293    5.44175437850945   10.10977539796110

