85
CSD_code = TIHPOP | q = 0 | S = 0 | Stoichiometry = C26H51ClN4P2Pt | MND = 4
Pt        4.08205782509396    3.56858067231482    9.92426238325877
Cl        3.40232131646106    5.27959228537595    8.54813448678417
P         1.93545560827810    3.53850680655009   10.91157156347967
P         4.59061874386875    1.84929392405630   11.31818209398543
N         1.91795810936414    4.69773519547993   12.10981559268976
N         0.36135209959416    3.66657150859385   10.29927058840251
N         4.52734268799156    0.39643615676775   10.51474550174470
N         5.94749641652171    1.64197235665611   12.31701823288638
C         5.97564723494375    3.70366959245093    9.10107157526430
H         6.57287155575324    4.41591364769945    9.68451442346653
H         5.92210617800571    4.08759636144496    8.07951559605000
H         6.52434015740746    2.75822277392268    9.07057390029980
C         1.90357096422304    1.88251170139449   11.78170512297909
H         1.98217090302530    1.12598200035189   10.98925238952178
C         3.21738042182298    1.85447427746214   12.57085536439345
H         3.29406347582162    2.81391795296932   13.10132366395691
C         2.99621550753873    0.75098696264751   13.59649121366606
H         3.71318507372495    0.77517203239123   14.41623588803812
H         3.04153621883366   -0.22786780594826   13.12070977052445
C         1.56560688060102    1.04190501574253   14.05907222035327
H         1.57922406435147    1.85598571760482   14.78580213224444
H         1.09854596921725    0.17769623977021   14.53087477697668
C         0.81474935779263    1.48329862460273   12.78947857713947
H         0.14054862212093    2.31133684681765   13.00192808569007
H         0.21263147424813    0.66176083929939   12.39736744252590
C         0.77875124074268    5.07193494576980   12.92159977765943
H         1.00129746675308    4.85743866142226   13.97798441634620
H        -0.07405674980251    4.46630777101955   12.61045060190745
C         0.43589138584209    6.55730545412198   12.78024422774758
H        -0.36554190817533    6.80596170405942   13.47941610697911
H         0.07701155581787    6.75147296841259   11.76911211327216
C         1.66446037131314    7.42208834624716   13.04703050185437
H         1.42316335375498    8.47423652969370   12.88539518408699
H         1.97652711563723    7.30497361119292   14.08871976335744
C         2.80224324706145    6.99039051247573   12.12704251220002
H         2.52392864992986    7.14375277857982   11.08294620485905
H         3.70180949444754    7.57386275591254   12.32829617726509
C         3.09690627778005    5.50996781610903   12.34535928381086
H         3.89098323616561    5.17792362723542   11.65140469330255
H         3.44826309537956    5.36112588547845   13.37818910058433
C        -0.28506932979225    2.53717372605977    9.65307514476239
H        -0.05841235569161    1.62346528531638   10.20259308685594
H         0.06372138560977    2.41873509915813    8.61665986510316
C        -1.79572872435643    2.77519340949326    9.65185790604088
H        -2.14127602587927    2.84945562448094   10.68526919916425
H        -2.29729719700752    1.92644940166123    9.18318422159442
C        -2.12765298518753    4.06679709053902    8.90944579849088
H        -3.19900568267919    4.26920138272012    8.96663614959004
H        -1.86077559892676    3.95797598214691    7.85578309214961
C        -1.33369442590030    5.22161834973855    9.51368067794678
H        -1.49962038381553    6.13805752678767    8.94550953113902
H        -1.66119701325665    5.38927379348019   10.54224623746111
C         0.15058762942270    4.87440624292229    9.50506136795289
H         0.75122391014410    5.67990201878637    9.93126645901010
H         0.48916905064029    4.72714930740873    8.47169116815137
C         4.88609582690392   -0.89013157775154   11.07433068824722
H         5.08357596832501   -0.76189195017475   12.13961634980974
H         5.80237471598206   -1.26602257567075   10.59569340241173
C         3.76316552208066   -1.89991769990472   10.83077068334843
H         4.05211210388767   -2.87280169596064   11.23265873594240
H         2.85761392707363   -1.57224517049885   11.34586632300088
C         3.47766917568226   -2.00335191284277    9.33414740889767
H         2.65134468387435   -2.69409708956280    9.15560257974509
H         4.35999019377935   -2.39653491136801    8.82357096246656
C         3.14311225138525   -0.62223306236737    8.77390099031344
H         2.99435984599756   -0.67419107698019    7.69470454382925
H         2.21699434255850   -0.25946657387940    9.22533591384246
C         4.27847506357516    0.34999428513275    9.08631577315829
H         5.18377832362935    0.02049900626928    8.55777086592679
H         4.02923828104927    1.36986693012198    8.74834204952672
C         6.15103713931779    2.54635676107017   13.43894363492829
H         6.60027150085064    3.49192240175181   13.10280348747660
H         5.19330377819359    2.77070670531532   13.90652697430111
C         7.07640905008476    1.87644550378858   14.45388899752631
H         6.60828666530831    0.95449263400301   14.80490772690076
H         7.21758565291663    2.53800992675353   15.31015984567949
C         8.41728305652279    1.54992931758549   13.80410388064948
H         8.92088958681877    2.47870905912538   13.52673434079179
H         9.05864183066810    1.01555406677783   14.50705243998463
C         8.18169470348312    0.70873553765448   12.55299894234397
H         9.12302036648776    0.52873562391424   12.03183554044923
H         7.75422630904806   -0.25532990326265   12.83510793822760
C         7.21277082236416    1.43396534079520   11.62275084758265
H         7.02761219093310    0.84359708414522   10.72359793121543
H         7.65246016866042    2.39244572113732   11.31763704449624

