31
CSD_code = TIHPEH | q = 0 | S = 0 | Stoichiometry = C11H15AuClNOSi | MND = 2
C        -0.12487894878523    5.98034214633779   16.72413373693267
C        -2.07650614219713    7.43677910300541   16.07751486070010
C        -2.59904608542546    8.29561617210972   17.04569519468735
H        -2.17268193970125    8.29498603307669   18.03735106734509
C        -3.64358073272353    9.13528949445504   16.71752368403783
H        -4.04710421688000    9.80370677245733   17.46206532343507
C        -4.16638225574035    9.12036992310068   15.43279230955626
H        -4.97900232646007    9.78167244561904   15.17452435822946
C        -3.64893319540340    8.25953264855126   14.48073424617516
H        -4.04957938663219    8.25119730937575   13.47871534628074
C        -2.60259606583374    7.39948441167363   14.78156098520880
C        -2.02018188745564    6.52237982592835   13.70469106444277
H        -1.35053180093625    5.76924389324659   14.13541289228298
H        -2.82988765835380    6.00880591209784   13.17315545871875
C         0.01490551334840    9.50101326553328   14.15822732266532
H        -0.93133927497612   10.03251300543288   14.09738087146969
H         0.80541498141358   10.22428440799631   13.98710620623243
H         0.12505402413288    9.14421480267608   15.17927015235549
C         1.49896769506940    6.88746371753400   13.38845668911640
H         1.38911856244669    6.53635391694428   14.41321592139503
H         2.47190914846821    7.36213128137246   13.31726569810464
H         1.51838008571408    6.01131442333685   12.74604291501449
C         0.30122670743155    8.73859029601826   11.11856533699558
H         0.33357299702978    7.93212922575754   10.39378676790985
H         1.22340742330249    9.30183724566781   11.02857822964055
H        -0.51680965968804    9.39578175864533   10.84296895499173
N        -1.03422837669957    6.63952753601049   16.41734342958128
O        -1.33840411970993    7.28832383268133   12.75246022065253
Si        0.09833156214166    8.07812047083367   12.88383636890600
Cl        3.10681594029555    3.67857919494150   17.61978871769202
Au        1.35326943282061    4.92451552747787   17.14473566940653

