84
CSD_code = TIHQUW | q = 0 | S = 0 | Stoichiometry = C35H39F3O3P2PtS | MND = 4
Pt        5.02190757005754    3.06547938534411    2.28097153010162
S         3.94357461032396    0.79559568673978    1.67752997626885
P         7.03036709467003    1.79823420341477    2.85808993835724
P         6.29696632662542    4.34702307833131    0.98081645770781
F         4.55726132847507   -1.46326060364195    2.95299265260798
F         2.44043209549465   -1.23285619714518    2.61570508333796
F         3.73897235782515   -1.79946091094526    0.98707755573350
O         3.98199313478998    1.33552664479675    3.04273152451274
O         5.21277933160025    0.74788260848295    0.98090034030736
O         2.82193529675486    1.18607655144800    0.88439774448021
C         3.23449852745830    4.05348319740007    1.93886968485801
H         3.07950469229354    4.21752336109595    0.86758629914989
H         2.51770179098603    3.29049219981579    2.26150358468474
C         2.96705144670092    5.34287818685373    2.71050912065770
C         3.39982330719806    5.16837782010126    4.16938491518296
H         3.16361486993155    6.05514671756481    4.75500912093253
H         4.47726502452300    4.99696378487219    4.21189228998847
H         2.89143434512845    4.31423467500737    4.61023706785973
C         1.46195861288270    5.64257697854021    2.66421939268752
H         1.12467055523758    5.73490536999136    1.63471664287179
H         1.24351089343548    6.57333001238253    3.18466661105739
H         0.89916057596633    4.84239929421877    3.13763841680632
C         3.72101360378301    6.51752087358004    2.08532864291923
H         3.37502977281075    6.69141928957979    1.06942515418948
H         4.78919323880494    6.29981570312045    2.05397859939876
H         3.56755206342590    7.42573377119694    2.66448881599685
C         8.29255589509303    2.61393459539093    1.74442543307012
H         8.59983441466864    3.50865858201721    2.30607601587362
C         7.55092805417657    3.07918182538632    0.47927825818652
H         6.95831620087267    2.24115466893882    0.09008535629674
C         8.68171777344975    3.39125186683889   -0.49144452259137
H         8.34637855323084    3.49197926714842   -1.52290270121987
H         9.20051531191622    4.30434745061254   -0.19300414426006
C         9.59840362914676    2.18188100282262   -0.28311749518835
H         9.20079000378247    1.32966774700903   -0.83530607375699
H        10.61319279684025    2.36736345868455   -0.63268739900865
C         9.55264802558231    1.89729081265405    1.22976435130525
H        10.43769554785994    2.30257475086098    1.72176498809182
H         9.52637750389155    0.82554342329258    1.42482382637603
C         7.65779282739627    2.32367225318072    4.48998406251502
C         6.73995051535391    2.91225186365267    5.35249325221298
H         5.70296829555915    2.98694398820031    5.03681592583962
C         7.14343988428114    3.37962636656310    6.59092677236204
H         6.42728701162302    3.83574708958388    7.25853604153169
C         8.47003401563484    3.25952357589961    6.97080052142026
H         8.79095662089190    3.62370680022925    7.93576211762546
C         9.38829230421364    2.66730013427705    6.11686551444085
H        10.42089458327455    2.57048165641299    6.41983934307352
C         8.98635621756149    2.19873937723724    4.87961233635436
H         9.69722236955845    1.72974904354611    4.21412820771338
C         7.41769677054378    0.02708250826074    2.86302296662485
C         7.56191475603389   -0.67101297447211    1.66598956829809
H         7.47730475959235   -0.14757672802858    0.72636840597912
C         7.76011294341915   -2.03855831206604    1.68116002762593
H         7.86799044854717   -2.57494704738373    0.74954480741532
C         7.80327166275710   -2.72439798013493    2.88416830797551
H         7.94973398580877   -3.79438251603660    2.89175811021503
C         7.63808371834888   -2.03843464027957    4.07533150807488
H         7.65288108355958   -2.57219430463209    5.01424787455184
C         7.44011222427984   -0.67022330716098    4.06770412519002
H         7.29517714168846   -0.14070281790445    4.99937902271985
C         7.34252096587001    5.69757462373227    1.60702070211282
C         7.42354003547853    5.84062867812946    2.98960808411586
H         6.81185378039438    5.19505184393600    3.61002706022787
C         8.26764115363822    6.78232190907356    3.54711020858273
H         8.32859037431301    6.88461939211069    4.61999559102596
C         9.03524826045954    7.59166835982966    2.72396100212198
H         9.69315866731526    8.33137512738287    3.15479867087380
C         8.96140376584783    7.45175927651374    1.34755991081218
H         9.56320215285815    8.08111135119243    0.70856225798811
C         8.12326002738948    6.50382813147194    0.78517199351320
H         8.07399928535579    6.39288076249968   -0.28814206319808
C         5.52877560134165    4.84611739798671   -0.58178890479388
C         4.93015025244929    3.81558746295855   -1.30668664693317
H         4.95801191066099    2.80451956376715   -0.92187897794426
C         4.26882277256863    4.09384763088344   -2.48736822357510
H         3.80474124099532    3.29449157828595   -3.04477994965178
C         4.18717592347413    5.40048294158775   -2.94523112476358
H         3.66914721620502    5.61830246315708   -3.86731766144075
C         4.74965968918484    6.42951565973779   -2.20890249040927
H         4.66350025384204    7.44982550438639   -2.55283365033662
C         5.41314504805414    6.15866620536356   -1.02391341298484
H         5.82343830073710    6.96742349667015   -0.43750546186790
C         3.64451300399904   -1.02316452332215    2.07397121119144

