81
CSD_code = TIHQOQ | q = 0 | S = 0 | Stoichiometry = C34H39ClO4P2Pt | MND = 4
Pt        4.46849709250553    2.98982024633587   18.57802549416604
Cl        3.69873711974557    1.00624595398881   17.74597026483638
P         6.15157918789980    3.30129374491046   16.86736674549795
P         5.62505346876861    4.68813966011446   19.56198350425877
O         5.67077102278787    4.51709575349113   15.89530190532400
O         6.87564369841005    2.26349532574670   15.86920963622333
O         6.55862351290644    4.06274222474882   20.73554151336182
O         4.95449216999609    5.97623796466336   20.25523808852988
C         3.06384189215251    2.90979100419686   20.10576288201674
H         2.87967361576997    1.85900525796756   20.35888742985855
H         3.49916077935268    3.39020900342513   20.99370543060888
C         1.73495634879545    3.59682522753119   19.78654527344113
C         0.89860840480235    3.67280445321718   21.07201793163435
H         1.40857952032015    4.26695526915089   21.82754682326668
H         0.72831892343250    2.67705015539328   21.47490436520599
H        -0.06703662354344    4.13093025999564   20.86731592928454
C         0.95817601240430    2.80514750584072   18.73395672426534
H         1.56184581101492    2.69161373047196   17.83696664773152
H         0.03286211130808    3.31636147303092   18.47443566518731
H         0.71653218462952    1.81260939106864   19.10597727009878
C         1.98348106200081    5.01785910704988   19.27073758033647
H         2.50400336282600    5.60828033020222   20.02053563820567
H         1.04191288920946    5.50880054084329   19.03155378455184
H         2.59510443117774    4.98576889758916   18.36668589454246
C         7.54290775682365    4.22580904828478   17.67255824231487
H         8.01627966304856    3.52944650593510   18.37762344924192
C         6.92982717198975    5.37921062703998   18.46149545140247
H         6.39980381797776    6.03794542543323   17.76102740159460
C         8.16283054762811    6.10094175939411   18.99813136945933
H         7.96152171500990    7.13694346370599   19.26769721740889
H         8.53341999014020    5.58454279329124   19.88527666226229
C         9.17873120349784    5.99183669370693   17.83914778322351
H        10.15718541413099    5.69652697259836   18.21647023122120
H         9.29523138863903    6.95099512219572   17.33577133035369
C         8.62640306763014    4.93034712078426   16.86234850931259
H         8.17918762165748    5.40603919561145   15.98748665030020
H         9.40353504788804    4.25103833319046   16.51517698030618
C         4.32573317020309    4.83185950621125   15.80339777903325
C         3.36385158026080    3.84233411015544   15.65321312216259
H         3.66688178048598    2.80474959226379   15.60095729747154
C         2.03238554148918    4.20414382023929   15.52827137456802
H         1.28523558000655    3.43597815192268   15.40449423843562
C         1.66386844515540    5.53806597136862   15.56550310095658
H         0.62444524721525    5.81422501265167   15.47692773291519
C         2.62994604365769    6.51895180488386   15.71342051042465
H         2.34730993315066    7.56066637504441   15.74018283147720
C         3.96411414172960    6.17130300043393   15.83218094755181
H         4.72913338562084    6.92596197013589   15.94124334346249
C         7.80715663061570    2.53118088112032   14.88270089272169
C         7.47089790478578    3.24677571372682   13.74395803417419
H         6.47168942489202    3.63735512942956   13.63414449170229
C         8.42260153998828    3.44539079028365   12.75851748195339
H         8.16103263751512    4.00553218056108   11.87330936234889
C         9.69818073916983    2.92710586503490   12.90005362374243
H        10.43543069233070    3.08412119974777   12.12745779596101
C        10.02400191957133    2.19971759363901   14.03267638200290
H        11.01454442985743    1.78497641428966   14.14525254957078
C         9.08325981586079    2.00288335808676   15.02710928988826
H         9.31925214655868    1.43694516877342   15.91565651035093
C         5.60637937158335    7.11058426455798   20.70844425071027
C         5.33791398903636    8.31427660960033   20.07066098662519
H         4.66432666483792    8.31988293228917   19.22726932943598
C         5.93042797210128    9.47787954444777   20.52732023630082
H         5.72084089601330   10.41386749380949   20.03184465214536
C         6.79078671917945    9.44226670941105   21.61230029790149
H         7.25494231793051   10.35090537156434   21.96421293068259
C         7.05185693428751    8.23928660032321   22.24591970493910
H         7.71930305873400    8.20799117208298   23.09383772373822
C         6.46039702832657    7.06994103754338   21.79991615769620
H         6.65731169784783    6.12718998765584   22.28443620788187
C         6.28597303577617    2.79174955910158   21.22786379281855
C         5.94929557405220    2.65120949953657   22.56457175398036
H         5.90228228454585    3.52663138928609   23.19448639687277
C         5.65910955859225    1.39468599151414   23.06781179615605
H         5.39118008764931    1.28816554084478   24.10805821146740
C         5.69132807048410    0.28658481858412   22.23866576783040
H         5.44466485520075   -0.68824706602219   22.63039681346378
C         6.04213618799589    0.42905154924839   20.90742228747714
H         6.07249351581544   -0.42954849899892   20.25526680377953
C         6.34409461325636    1.68107027191422   20.39451691540933
H         6.68372043162370    1.77984607004914   19.36886458889923

