61
CSD_code = TIHSAE | q = 0 | S = 0 | Stoichiometry = C20H32Br4P4Ti | MND = 8
Br       -1.75713438018391   -1.75083849152735   -0.78640237042693
Ti        0.00018381877283   -0.00018171714236   -0.00013506842155
P         1.10536535941544   -1.10167266110046   -2.14426159065360
C         0.92625571004400   -2.91593898340342   -2.42059297731743
C         2.92065029329055   -0.92310665472921   -2.41459008942716
C         0.49584943647384   -0.48959628402015   -3.76606109959671
C         0.98773864946668   -0.97175083613592   -4.97430675005223
C         0.49480263404288   -0.48561903905742   -6.16945071218476
H         1.58949970915271   -3.23591268626117   -3.22269748475380
H        -0.10357394314026   -3.14886672488581   -2.68780206450564
H         1.18765024576677   -3.45072940480064   -1.50737656271935
H         3.25048836516307   -1.61338892964273   -3.18938281991871
H         3.45157339742222   -1.14735603788606   -1.48933047118464
H         3.14836637738744    0.09825119443215   -2.71685785320349
H         1.75833041383689   -1.72859510621592   -4.98637016547324
H         0.88100142237395   -0.86378143949687   -7.10458372002860
Br        1.75635394164717    1.75117219132073   -0.78667777421431
Br        1.75095471392946   -1.75671358409549    0.78639215313711
Br       -1.75088854726098    1.75662861987529    0.78707090107948
C        -0.49581606357391    0.48957178284508   -3.76606659304973
P        -1.10524720524262    1.10165770179664   -2.14425726182945
P        -1.10165729607778   -1.10529485109081    2.14424857176285
C        -2.91592988708199   -0.92622556139169    2.42055278614914
H        -3.23589623152379   -1.58946323296304    3.22266510546057
H        -3.14886797170047    0.10360524703974    2.68774991272711
H        -3.45071526190783   -1.18765121470680    1.50734699810670
C        -0.92308984853493   -2.92058965480456    2.41455641836824
H        -1.61335386701970   -3.25043036387640    3.18936560867097
H        -1.14736062420805   -3.45153239301952    1.48931444227608
H         0.09827139305361   -3.14831578613375    2.71681007604506
C        -0.48958493621014   -0.49582250160003    3.76605920704163
C         0.48958386484307    0.49584286616018    3.76606412840460
P         1.10166238636671    1.10530889019247    2.14425155729927
C         2.91593040221238    0.92621518105756    2.42057410437349
H         3.23590224185470    1.58944540526140    3.22269190262243
H         3.14885012960896   -0.10362027538397    2.68776756440584
H         3.45073400623032    1.18762571417681    1.50737187810771
C         0.92308398356653    2.92060746408798    2.41454679067254
H         1.61334972430698    3.25046421791967    3.18934721570626
H         1.14735182271115    3.45154582962414    1.48930166033385
H        -0.09827647622669    3.14833335718990    2.71680582586126
C         0.97173438625072    0.98774318169619    4.97431029846210
C         0.48559652733833    0.49481734619863    6.16945484015781
C        -0.48563462509692   -0.49478891877448    6.16944908954951
C        -0.97174926534351   -0.98772328532002    4.97429907017347
H        -1.72859200850326   -1.75831605890203    4.98635848291958
H        -0.86381229178336   -0.88098520152475    7.10457759154577
H         0.86375007153242    0.88102524507064    7.10458823432500
H         1.72858259654515    1.75833036267919    4.98637894247555
C        -0.92619958261650    2.91593224491397   -2.42056145984016
H        -1.58943799296536    3.23589521436781   -3.22267468072590
H         0.10363159087970    3.14885645557359   -2.68776508451465
H        -1.18761519186217    3.45074248358793   -1.50736777666517
C        -2.92055614101052    0.92307891364044   -2.41454282907492
H        -3.25041604000843    1.61334538740607   -3.18934197531214
H        -3.45152834681074    1.14733307796857   -1.48931354730363
H        -3.14828350556450   -0.09827743836871   -2.71681730374867
C        -0.98772988548769    0.97173379608048   -4.97430081293665
C        -0.49480422189769    0.48561299656999   -6.16944869272801
H        -0.88100868923717    0.86378171515696   -7.10457668290883
H        -1.75831928740510    1.72858123437164   -4.98635708349983

