160
CSD_code = TIHSAG | q = 0 | S = 0 | Stoichiometry = C60H69LaN6O24 | MND = 9
La        2.91731588483562   15.29890758158746   -3.69560511471495
O         4.47170430984655   16.31210848281539   -4.93254578707630
O         6.47639352086193   15.64839626996349   -4.85577690067505
O         5.18950130640505   15.33998913688662   -3.19554281837415
O         1.59126581184965   18.88936737402735   -3.35707599322140
O         1.97636189854524   17.27372040485615   -4.66295922532121
O         2.83919894334677   17.30326289192914   -2.71758660546704
O         2.26191568594896   13.14021050060715   -3.68821827202028
O         2.72378701522622   12.03001711354411   -5.42857329685567
O         3.93854684090655   13.66484824852122   -4.86409644314824
O        -5.52939326929182    7.35914488378222   -4.92560532003811
O        -3.20875663913030    6.87217495564066   -5.93353162923996
O        -2.60201972467608   12.85653478641115   -6.26154434976353
O        -1.17509676506216   11.30165955355766   -7.05224296422174
O         1.78161279730621   14.77794654154736   -5.76901401679357
O         3.49094446386498    9.35272295965284    4.12615899359374
O         2.52731636907298   11.48233072589142    5.22057737914899
O         0.17213046688928   13.92268275122193    1.34281209224818
O        -0.35671409900452   12.17792196000637    0.01055977617607
O         0.66661667122707   15.50933922206901   -3.17183595933072
O         9.02693253403300    6.57196426657068   -3.68053070401941
O         8.31596161022935    8.92277881904997   -4.47965736586149
O         5.31877412341263    9.29928453285597    0.72987022440990
O         5.59225326732345   10.90959632514531   -0.84038935352952
O         3.11868012434553   14.82749583500431   -1.42196308477922
N         3.41237921591921   15.78090628725237   -7.61685403816507
H         3.10972896211173   15.79153527523080   -6.63210915699310
N        -0.99418474013026   15.85644413640256   -5.18179978030457
H        -0.06114765390231   15.99778851308698   -4.76136855133615
N         2.40027970511828   16.23308514304837    0.65657300760054
H         2.51241686062285   16.14098118814790   -0.36590964357445
N         5.40392339085369   15.74789105894595   -4.33251781206855
N         2.12288980765701   17.83279348562834   -3.57318352553387
N         2.95494246424389   12.93998168690453   -4.68498135799838
C        -4.80733320713784    8.45177681817990   -5.26406817572288
C        -3.52953292750325    8.18627629840646   -5.82094002793705
C        -2.72061843024579    9.23758536302037   -6.20115311552716
H        -1.74432309625190    9.06464485137389   -6.62125428504748
C        -3.15363129119036   10.55816128125067   -6.04169668505368
C        -4.40238431314234   10.81236784418165   -5.49258404835750
H        -4.72678597956271   11.83445662926322   -5.37686890985648
C        -5.22202417092078    9.76652942143534   -5.10706703226965
H        -6.18889132977782    9.98586170830337   -4.68370323112927
C        -6.80651499830778    7.53925960298478   -4.36240910993342
H        -7.18843381509130    6.53654839277023   -4.17831139587128
H        -7.47948915040409    8.06208890516749   -5.04956284402946
H        -6.75531205592481    8.08640054676273   -3.41569842159650
C        -1.95134440081107    6.53654019991544   -6.47063542023219
H        -1.91149771920932    5.44864939471630   -6.46116587885188
H        -1.13396368608576    6.93535504726330   -5.86196208815790
H        -1.84560481108773    6.89425587434960   -7.49982009297855
C        -2.30688884052413   11.69590869879853   -6.43456955910055
C        -0.19400133283567   12.23307929075821   -7.34136730602547
C         0.30507705282979   12.25037653675329   -8.65990729460681
H        -0.10481694426143   11.56545354844016   -9.38401912292120
C         1.29852068740578   13.12645699001491   -8.97721910309208
H         1.69761013387228   13.14983802696760   -9.98114240150591
C         1.83336295540072   14.02263252404900   -8.02344097699097
C         1.33636112465774   13.99640780248595   -6.66700077265478
C         0.29776247100104   13.06596775562807   -6.37834230823137
H        -0.06424349702047   13.01321067392587   -5.36233596189607
C         2.84533792966412   14.91859874907576   -8.40554044899031
H         3.17534960063691   14.90198227993753   -9.44212382154528
C         4.40574981509804   16.75147992874435   -7.97665665687932
H         4.56256308784301   16.73006170510732   -9.05942718026636
H         5.34137901922897   16.49331639725873   -7.47001289677730
C         3.96111698260804   18.13754657480133   -7.50533952388103
H         3.79733809962958   18.08852883593917   -6.42825869681609
H         4.76575572587646   18.84831877670003   -7.69729965589319
C         2.67856411950545   18.60902833170034   -8.18642262223806
H         1.89619946978357   17.86215508157019   -8.03758922269849
H         2.84692567645622   18.71438873077433   -9.26183098559449
C         2.21149581728601   19.93881851581729   -7.60776363784196
H         1.29589157727251   20.26938036341196   -8.09219927118187
H         2.96983677118855   20.70553836161429   -7.74909187809796
H         2.02039231356449   19.83738537597119   -6.54299218181751
C         2.68632992231898   10.08844115003849    3.33480751400695
C         2.16073511971385   11.26608609991606    3.92737041792349
C         1.35670304537164   12.09859234747102    3.18055622302971
H         0.95476728873620   13.01355141040214    3.58505620983167
C         1.03012016569615   11.77584098067018    1.85798293219498
C         1.52478613907050   10.61133346373964    1.28930433420477
H         1.28457419366288   10.36925290700697    0.26651719299825
C         2.35227442513162    9.78034384423216    2.02268468001264
H         2.75937839265024    8.89970475482027    1.55536444830506
C         4.09991763631762    8.19908013396262    3.58320673070402
H         4.75492444193084    7.82167349769010    4.36660363539411
H         4.68554932632508    8.43947817981175    2.69336643439438
H         3.35348471784884    7.43727585491439    3.33704517422968
C         2.01355960813266   12.61538711415452    5.87435990710939
H         2.40480648372655   12.57116387964183    6.88943005402152
H         0.91927049251665   12.60113807130959    5.90613244443286
H         2.34778506133038   13.54377358208408    5.39883012669771
C         0.25826600345534   12.74533904775926    1.07327426250542
C        -0.72719778008972   12.95868517357916   -1.06606935596230
C        -1.95887873244258   12.69176554002409   -1.69758210599317
H        -2.60574680704773   11.93063186322704   -1.29308920664668
C        -2.28956381546137   13.40209123197789   -2.81505357362622
H        -3.22137189859935   13.20707445640888   -3.32495383680698
C        -1.42630807214943   14.37713175527881   -3.36580399564167
C        -0.15998530910942   14.64228879707573   -2.72790859367256
C         0.12636168671716   13.90873621863421   -1.55043609858498
H         1.07361810377959   14.09035762279919   -1.07044970037165
C        -1.78119779448761   15.03216616961840   -4.55883766538957
H        -2.74765966989431   14.81915667525770   -5.00290351711213
C        -1.26173656907057   16.52345723417122   -6.42295143742438
H        -2.32350450000517   16.42383470442116   -6.66622425236579
H        -0.67902771328855   16.03388756626652   -7.21243121097418
C        -0.84477688159880   17.98963052199185   -6.31063613444976
H         0.18686236504697   18.02311855614690   -5.95749781715350
H        -0.88430407122005   18.45323318502998   -7.29724661735103
C        -1.73273042798006   18.76519356281839   -5.33929880492927
H        -1.81192498081306   18.20827869558609   -4.40344286760497
H        -2.73864486974150   18.86166625909061   -5.75723167279763
C        -1.15616153474329   20.14341343620560   -5.04188080155051
H        -1.82287991578784   20.70259217040710   -4.39004184203543
H        -1.01925397381865   20.70905687431094   -5.96094558246421
H        -0.19517480338583   20.04313139534617   -4.54407973502120
C         8.24243584245400    7.26366547633650   -2.82133146452916
C         7.85455856380312    8.55680279777734   -3.25880298110840
C         7.06043565199067    9.33832725689402   -2.44477443477616
H         6.75488575042083   10.32283455550325   -2.75479813458674
C         6.63272629265666    8.86252117914935   -1.20003852114377
C         7.00839309067053    7.59408302871495   -0.78095148677870
H         6.67253804434183    7.23584877198410    0.17955610499417
C         7.80981487253666    6.80355777821946   -1.58587062584030
H         8.09443181495249    5.82310788503634   -1.23956878166024
C         9.45803603554245    5.28374251513500   -3.31505083779661
H        10.07045609679007    4.93419894716301   -4.14454683904103
H         8.61379580197055    4.60068919790484   -3.17574889427374
H        10.06301675106316    5.30509105597808   -2.40280639237868
C         7.95646533136374   10.19287099422976   -4.97722768229127
H         8.42913906428566   10.26589638399584   -5.95495793156782
H         8.32769939355177   10.99719859319162   -4.33526842872249
H         6.87272012273714   10.28978557192723   -5.09100512254375
C         5.78759890955074    9.68516989566109   -0.31696123030350
C         4.89008620392900   11.92752062792261   -0.23623262995839
C         4.77949489269066   12.07762977258301    1.16137396984578
H         5.21353128955126   11.34725974569222    1.82171861101128
C         4.12349042028228   13.16757302394253    1.65293403534341
H         4.04524678425325   13.30314581166929    2.72131074018867
C         3.55062763550268   14.14470520154704    0.80949316001326
C         3.65623861319193   13.99308993757519   -0.62577806368798
C         4.35374458634425   12.85249424757696   -1.09559129261531
H         4.47370215692132   12.73397358211225   -2.16370863960314
C         2.88459356944042   15.25119016896799    1.35896616497952
H         2.77940305809333   15.30826109530100    2.43875914334415
C         1.65659186195727   17.34524478934437    1.17469454934009
H         2.07756527939404   18.26547707986504    0.75908816775176
H         1.75934428696915   17.36117201455471    2.26353712474809
C         0.17584922817565   17.24039224165066    0.78980561975591
H        -0.16678192742708   16.22803155862223    1.00997902378275
H        -0.39284526690784   17.93664509392259    1.40966005993533
C        -0.06494479918000   17.55856381380827   -0.68308806085340
H         0.23285455178392   18.58742379623219   -0.89566438315096
H         0.54402703649015   16.90311278728090   -1.30583458344137
C        -1.52966344754914   17.36738190249407   -1.05510012694617
H        -1.68461763865343   17.60449435434117   -2.10443772706948
H        -2.16761752032626   18.01657523129128   -0.45813371917008
H        -1.83212837781517   16.33548331576119   -0.88793190761801

