29
CSD_code = TIHVEM | q = 0 | S = 0 | Stoichiometry = C12H12Cl2N2Pt | MND = 4
Pt        1.59290489427935    3.40598042235520    6.99851293002325
Cl        1.99212489479211    1.23938370884467    6.60960865465096
Cl        1.63943794606770    3.76250431978922    4.79049805975565
N         1.53026482430479    3.21711071799164    8.98274354192741
N         1.23271351509447    5.30880375229987    7.47441956409182
C         1.70173610686386    2.09131879604194    9.67510069294096
H         1.88681251755542    1.20274252691342    9.08453003785929
C         1.65064430981654    2.05139385674477   11.05237002418814
H         1.79777418308609    1.11425740380145   11.56497422363495
C         1.41235593323631    3.22316545964805   11.77089762523606
C         1.23281223989657    4.38980426657175   11.04111665089471
H         1.04689588379839    5.31622184663541   11.56040539680867
C         1.29418906199449    4.36985935333728    9.65084799316923
C         1.12151288982098    5.54546557357814    8.80259999429101
C         0.86109512733087    6.82591964473938    9.27962996374846
H         0.77162539961166    7.00101139768057   10.33975939649522
C         0.71259606013926    7.88970843010859    8.39938440697771
C         0.83668725985217    7.61350227662601    7.03867418529531
H         0.73316775485231    8.39865845122368    6.30694094578139
C         1.09327045580036    6.32348568142294    6.62258227392519
H         1.19428336785467    6.07150576752878    5.57428083161413
C         1.33120234210240    3.22436500311249   13.26132371915760
H         1.72687548806560    4.15041427867856   13.67167300412338
H         1.87892400516397    2.38429079910960   13.67955438438747
H         0.28974627818384    3.13757186003257   13.57219864068793
C         0.42982613586485    9.26547997684000    8.90546276087285
H        -0.51047472996457    9.27803951362201    9.45508324435055
H         0.36501498852197    9.97574327928831    8.08633148656498
H         1.21588086601358    9.58629163543458    9.58749536654565

