71
CSD_code = TIHYIS | q = 0 | S = 0 | Stoichiometry = C34H34N2Pt | MND = 4
Pt        1.86487474040035    3.00387532899142   -0.04299591291851
N         0.05545374566145    3.42242902212325   -0.83324262504985
N         2.16841284239316    2.36247259703037   -1.93184588139883
C         3.65799156375002    2.57151365775744    0.60348800028154
C         4.79373200342156    2.26137037754925    0.90369793431031
C         6.11835372119845    1.91291694999461    1.26175052579489
C         6.76253673043508    0.83672990748755    0.64721272431769
C         8.05598254891252    0.50511380098588    1.00019109594564
C         8.72671026147160    1.23981278278066    1.96486927064931
C         8.09455480264561    2.30997462662478    2.57903095220828
C         6.80074103023765    2.64712789164380    2.23446073083122
C         1.44213216275743    3.62974433803959    1.75988400851316
C         1.07553832167499    4.03894642108480    2.84356452427280
C         0.65683421669205    4.50553997223937    4.11297221059455
C        -0.34491406086358    5.47269875104967    4.22187651231496
C        -0.75234115928377    5.91719372047865    5.46443873597495
C        -0.17226546681868    5.40490799804672    6.61391125620939
C         0.82294508686495    4.44483634303386    6.51444907378303
C         1.23820627700828    3.99628629516338    5.27642445079378
C        -0.97753608331457    3.98851330833491   -0.21573140484438
C        -2.17268741298969    4.27395651569342   -0.84513315899777
C        -2.33751299377583    3.96836912360347   -2.19597819096197
C        -1.25191833367047    3.37531708418033   -2.82963680287223
C        -0.07396053287131    3.10888001874144   -2.13947605427210
C         1.10256132056299    2.48633439684181   -2.74711575140833
C         1.14252338641962    2.03974430436801   -4.06713047801483
C         2.28701669919475    1.45418385753720   -4.58598716513981
C         3.37630138747471    1.34733017747288   -3.71572786995430
C         3.27539067069430    1.80583606993737   -2.42082084086096
C        -3.60901934832583    4.25158561908389   -2.97239970299343
C        -4.69266636120038    4.88758552123016   -2.09886225206262
C        -3.28275766351873    5.21645796583834   -4.12160060968573
C        -4.15422077414127    2.93157791832643   -3.53647418333067
C         2.39170454309536    0.94163001809986   -6.00874015727873
C         1.10751227431116    1.16538766524755   -6.81146943455460
C         3.53988134477754    1.67556372645388   -6.71595201411137
C         2.68280245332537   -0.56531115159428   -5.96663807115722
H         6.23608874931236    0.26115801598455   -0.10205938800088
H         8.54688909079626   -0.33110505412428    0.52141645571655
H         9.73880782818181    0.97795918725463    2.23831165348538
H         8.61643926096930    2.88232651151398    3.33318032946979
H         6.30009009695360    3.47829628802481    2.70910669888454
H        -0.79404362679365    5.87502268046988    3.32393349513382
H        -1.52745327807546    6.66747617080956    5.54009187431945
H        -0.49418794066618    5.75402284519961    7.58455868845341
H         1.27716833584249    4.04611392037491    7.41076610562109
H         2.01343991693667    3.24913960396008    5.18958736490941
H        -0.83126153656350    4.21770938657053    0.83175761393882
H        -2.95842527979217    4.73257925842189   -0.27045009052416
H        -1.31825865342989    3.11973926772944   -3.87410072397321
H         0.26617273608215    2.15129802468861   -4.68072599060471
H         4.30549295299713    0.90681964977290   -4.03790424215732
H         4.10819843454436    1.73194938947675   -1.73383237064660
H        -4.36238470529731    5.84264534258040   -1.69697982751038
H        -5.58173998606472    5.06689648194452   -2.69930556254418
H        -4.96971088293888    4.23037151115727   -1.27777317273166
H        -2.55869333809165    4.78838457654789   -4.81000674966300
H        -4.18667713820468    5.44662486067727   -4.68060950408645
H        -2.87406792055121    6.14582910296790   -3.73012460215806
H        -4.35434062737562    2.22974830794438   -2.72939149225929
H        -5.08279720435913    3.11311471008275   -4.07247602722534
H        -3.45198233270664    2.46928768316864   -4.22520321576303
H         0.87037554975293    2.22474024887966   -6.88603840651847
H         1.24195369948516    0.78228010502266   -7.82045982962630
H         0.26703650875995    0.63800582134015   -6.36496900966014
H         4.49152779015794    1.49215768816242   -6.22524521065406
H         3.61810983328818    1.33592286313405   -7.74604557770814
H         3.35845877034196    2.74857617176677   -6.72002398211015
H         1.88111167649154   -1.09196725223132   -5.45255426860920
H         2.75851682420979   -0.95692295291319   -6.97831197634221
H         3.61515245126525   -0.77513333790229   -5.44988250374358

