36
CSD_code = TIJBUJ | q = 1 | S = 0 | Stoichiometry = C14H12N6O3Re(1+) | MND = 6
Re        2.67751170966163   11.70093470795614    1.77002616367957
N         1.79971826668088    9.89221097662642    0.97748540690736
O         2.87863045567381   10.57793537076636    4.64623032975867
C         2.79541516408592   11.02179694460515    3.60163024586033
N         2.22710928246776    9.32493932696499   -0.16653353251811
C         0.95612186488056   12.54624859625432    2.16031881675587
O        -0.06427641413362   13.01646373092719    2.34211929374646
C         3.63301449713625   13.33214772309069    2.27553422394885
N         4.45265400590054   10.66933761554986    1.09612452116008
O         4.21962141829999   14.27532350923616    2.52302873766886
C         3.31979584765352    9.92028257282111   -0.92802705845513
N         4.49394726542435    9.98854341457213   -0.06488645374955
N         2.62980828162632   12.18197480431471   -0.33578002065202
C         0.81617315575943    9.14291263445661    1.43597231341415
H         0.31154811363215    9.39851437372122    2.34845522356672
N         2.93748166827613   11.28126971976752   -1.28826127575502
C         0.59175884353311    8.06157996971252    0.57737535682800
H        -0.13734407435307    7.28678582495137    0.68524209384632
C         1.50649507192587    8.20678858175859   -0.43285073342294
H         1.67384295191464    7.59454716647450   -1.29298117367717
C         5.64254449791144   10.55547812277159    1.65304523642267
H         5.85269695748131   11.02113161702949    2.59728309041092
C         6.48325875402163    9.78455206682334    0.84331958314369
H         7.50233530667831    9.52018144575399    1.03067543910103
C         5.72150617090713    9.43904400666894   -0.24242285758759
H         5.98228472455112    8.85375680180715   -1.09807311835947
C         2.83055437868340   11.84457233751495   -2.51779780390315
H         3.02818590310875   11.31290107123685   -3.42387903447949
C         2.44176270127241   13.14633562506511   -2.33695355462003
H         2.26271372862260   13.88030353963259   -3.09375102899792
C         2.32957802040309   13.30844425862071   -0.95205446433012
H         2.04843208743441   14.18116012608243   -0.39356081633287
C         3.61634130420500    9.09830902362007   -2.17388232210569
H         4.43189874033577    9.54834371374479   -2.73531799707268
H         2.73655525807495    9.05257091339820   -2.81170283633075
H         3.90002409026247    8.08557776570227   -1.89674999386967

