45
CSD_code = TIJDIC | q = 0 | S = 0 | Stoichiometry = C22H15MnN2O5 | MND = 6
Mn        5.22428486809558    9.96831493540548    2.11445432611924
O         4.48237639990288    6.73267643457524    2.61104296735058
O         4.86249972254829    7.99042422984590   -0.03049566269616
O         7.31453939973668    8.25402137457696    3.33714160974062
O         2.42836370900245   10.82977394657349    1.83550104093187
N         4.00094485366826    6.79908425504239    4.83227017654090
O         6.70450051367107   11.58162094790937    0.14990020602698
N         5.51198367598193   11.30921233022388    3.67101861143008
C         5.28148967413139   10.82140704116445    4.91316918792929
C         4.46383552626195    7.38329098384805    3.64491091559948
C         3.95432485277129    7.46669510541836    6.01428040034263
C         4.36726646085661    8.76771802608567    6.09264914910040
H         4.30763343564625    9.27902153244520    7.03856049981832
C         4.90167604095244    8.76903134579863    3.71884932764810
C         4.84391279087200    9.43132092712264    4.94392823236865
C         3.53543161575190   10.53826155498088    1.91419365492204
C         5.46292919942884   11.60537000656405    6.05276322459005
H         5.28845397840643   11.18104074250754    7.02811432839521
C         6.43829198346001    8.91029166637405    2.93128420265120
C         2.02436545843359    5.32666126540786    4.82737192085689
C         1.21330250548889    6.23311363554694    4.15535696863960
H         1.66213164851225    7.01354598747944    3.55802795685711
C         3.52426604362226    5.42926878946125    4.72416157216906
H         4.01034042586403    4.80568112977491    5.47828348475189
H         3.83948253167267    5.08966584160083    3.72950364055795
C         1.43599004752389    4.31363782532460    5.57372497296127
H         2.05943039124326    3.59988970266391    6.09407550484513
C         5.87309952055203   12.91643797287008    5.92379473311632
H         6.02072804148732   13.53619851409180    6.79471964219767
C         6.11718705187636   10.96825286971678    0.92668213857056
C         5.90206736009349   12.58086214458399    3.56050545401359
H         6.07243241964672   12.95381968619607    2.55880724687264
C         6.08975966257666   13.41495902826234    4.64668799467485
H         6.40574789752048   14.43364598205393    4.49108630750191
C         3.45107202316790    6.74970240963668    7.22324808484121
H         2.44053322493314    6.37832201316748    7.05982079790876
H         3.44543562340824    7.42037687377834    8.07758625175200
H         4.08851757357499    5.89772514823789    7.45892090246512
C        -0.16370253007453    6.13225570837057    4.23767167089597
H        -0.78441301215484    6.84161533980441    3.71117393803563
C         4.98608404076947    8.72241030326451    0.83870882525806
C        -0.74422325474397    5.12174127939174    4.98582311180939
H        -1.81917368649623    5.04243820918110    5.04769632612545
C         0.05810346395865    4.20963704873737    5.64969421952254
H        -0.38840317360248    3.41625790493503    6.23062993398057

