92
CSD_code = TIJFOK | q = -1 | S = 0 | Stoichiometry = C33H45N4NiO6S3(1-) | MND = 4
Ni        5.69477595660300    4.84767653985546   11.23491413933541
S         6.88400660105694    2.70685904959159   10.04921284135275
S         3.30222829883039    5.41439671614996   10.35822198788728
S         6.67725507401719    5.92959165986075   13.16936270306793
O         3.16479848063245    5.25499512697608    8.91383567760965
O         3.85337442258357    4.24181499392330   11.07020680146762
O         8.32874197574211    2.86722269625150   10.09583056508832
O         6.27063953975171    2.27390709967039   11.28646462393603
O         6.39176359842550    7.34258615082402   13.30622104745684
N         4.08401647366244    6.68985295625743   10.79694569993377
N         6.11438120260728    3.99924194958023    9.52744906242798
N         6.51984058511716    6.67713955282522    9.46612801647614
N         7.39739673822810    5.53967462307835   11.79851519031415
O         5.53694147763685    5.02913594281996   13.31639766781718
C         5.17439653093625    1.20156886503292    8.49647667654842
C         5.81819097972668    7.93374876819191    9.64500486814610
H         6.00367727268913    8.62936869330550    8.80044149517223
H         6.18945104060547    8.38198544369350   10.56786867989226
C         4.08180678315843    1.90088412733854    9.22370208048099
H         4.31604758787793    1.97884754242980   10.28141905031828
H         3.13357889289088    1.38328196186153    9.08232453820111
H         3.98471006256253    2.92885494259506    8.87517190654451
C         6.24486435673989    6.02087027023435    8.20216598595576
H         6.77627494102408    6.50083759851477    7.35612187288923
H         5.17016486975991    6.06145864861985    8.03129440632148
C         6.62337294548512    4.53960988452908    8.29941639915949
H         6.17102755403473    4.00165215008314    7.44938488574225
H         7.71477230334122    4.39339640598105    8.24153501171893
C         8.19720680219905    6.60487131761970   11.24998716331069
H         9.26403908591742    6.37718428903238   11.40722848689291
H         7.96145029936527    7.53807527130525   11.77972523905559
C         7.13893259104939   -0.17410479017553    7.11016567473063
H         7.90779908662783   -0.71635999060917    6.57524259874815
C         6.51956779991658    1.43080837866729    8.78574148313707
C         8.11640233337137    6.37604149812231   15.57431095678647
C         4.84150506103213    0.28466193991889    7.50250616231262
H         3.79685430927148    0.11169152248709    7.28130485066922
C         4.30512097918932    7.71558136371362    9.82646382881820
H         3.85906043121801    8.66583945138336   10.16661450160107
H         3.83585903138166    7.44909893712490    8.86830827178428
C         5.80895203523056   -0.40477748248196    6.79379600889357
C         7.51121624811982    0.73183965798903    8.09756693522100
C         1.45034135721228    5.93515985768772   12.35314044001240
C         0.48758587194831    5.03094223367968   10.33130788252882
C         7.43824194863683    7.69976771472369   15.74798681789621
H         6.35946862276971    7.57929137362453   15.70549307501651
H         7.70341351549602    8.37435134682557   14.93795756678713
H         7.72088014594381    8.14779049556754   16.70023537001931
C         7.94030507711414    6.78104706106883    9.74749079616416
H         8.36135969749201    7.74440558297503    9.40410456421931
H         8.45633137722794    5.97214506849004    9.23349512153092
C         1.60179299594068    5.46101766686443   11.04987061384187
C        -0.77450023271788    5.14579588312894   10.90419573630293
H        -1.64057141998176    4.81697241314901   10.34410655528606
C         2.62443955400326    6.30161050749367   13.19090686943344
H         3.28109813227194    5.44056515252303   13.30692019101902
H         2.31123974117810    6.65797832152390   14.17127970665366
H         3.23395066027515    7.04946042020122   12.68688184145683
C         9.05514884366108    5.99993159345938   16.53177938320970
H         9.27573380118558    6.67979283623667   17.34437357165908
C         8.97187957413590    0.89647821952545    8.38123870631950
H         9.17069056521646    0.73389325396368    9.43647464988184
H         9.28844353615307    1.91325930888907    8.16535812297200
H         9.55609741370266    0.19773510474894    7.78317965983735
C         9.70473489418581    4.77909807726399   16.47545083497007
C         8.44655098158753    4.25097621346400   14.46820650997701
C         7.83233081390941    5.50438708467859   14.52382262907766
C         0.59572736774820    4.40611168746702    8.97548313162384
H         1.00689761423581    5.11298213587159    8.26018757182531
H        -0.38074255086412    4.06266047912768    8.63456991822500
H         1.28781435164508    3.56891372549382    9.01214751708385
C         9.37757833960661    3.91253465585672   15.44506497299679
H         9.85482028215983    2.94314169742036   15.39900957714776
C         0.17142637974523    6.03525318972572   12.89424510822505
H         0.05740525864750    6.40871207065129   13.90359533535009
C         8.11699068995528    3.25431108189850   13.41685409052318
H         7.04125230922471    3.18019679532791   13.26868830543179
H         8.51136994657688    2.27357905437421   13.67612838234809
H         8.51941084870148    3.54654409898655   12.44775659097345
C        -0.95249138344637    5.66074825275274   12.17893204274782
C         5.44374582416467   -1.38555957636790    5.71664245196157
H         5.87916784238710   -1.08380176093981    4.76437539691046
H         4.36460457888599   -1.44811835519572    5.60028050113778
H         5.82586061643334   -2.37696877007072    5.95868660032936
C        -2.33139558852888    5.78278159100711   12.76270716307477
H        -2.93884886922097    6.46189507635957   12.16429779471209
H        -2.28886538259237    6.16236106991772   13.78086176313883
H        -2.82827338470121    4.81301701537441   12.77340158922781
C        10.72857697540599    4.39036398690586   17.50269306776427
H        11.71747457896887    4.33807611888918   17.04712845576296
H        10.50049702381970    3.40933490909054   17.91656663000482
H        10.76074622285584    5.11396525417482   18.31404278221149

