82
CSD_code = TIJGOK | q = 0 | S = 0 | Stoichiometry = C35H38FeO7Si | MND = 7
Fe        9.89573685353706    1.65394447651769    2.09308123333389
C         8.81278069588137    0.63165928922886    3.02489887666962
O         8.10521463701188   -0.07110869827600    3.59227190656853
C        11.28805541389037    1.02675896590012    2.99025349399653
O        12.17266056115522    0.55065470369956    3.54162131267723
C        10.03760925354297    0.64567954611474    0.62973313962344
O        10.22008184916046   -0.05250474784092   -0.25851674911554
C         8.36891783802314    2.98584514998961    1.50244688053243
H         7.31662715992109    2.80026261053000    1.71379540530815
C         9.10471349676159    3.57749521466473    2.59192006998444
H         8.63889837862713    3.88055559312875    3.52117509175595
C        10.46299280316047    3.80531305506593    2.29880224434527
C        10.87916669651462    3.24289900646903    1.04278182098349
H        11.95407542778093    3.28593418065677    0.87405520363368
C        10.07694458765566    3.63036947185858   -0.19038227595536
H        10.28071038681794    2.92140677565290   -0.99470470699490
H        10.40752159160672    4.61605499991363   -0.53219280175964
C         8.57131475357204    3.64141609412979    0.14091918571271
H         8.23477326730639    4.67959622784459    0.24508299035522
O        11.39207071198663    4.35659797442442    3.10788108333755
C        11.07573753501972    4.49948734928113    4.47691559691147
H        11.98726141172686    4.84427070734081    4.96105874319346
H        10.77172897935952    3.53705382059322    4.90408576933923
H        10.28200755485497    5.23626572281060    4.63122300354911
C         7.74509553605381    3.01755144336342   -0.95993726825791
C         7.33962141463935    3.77252737458022   -2.05518075587374
C         6.53805291850861    3.18983028693544   -3.03309249713982
H         6.22400641437053    3.79881751121772   -3.86547052524137
C         6.13225085260674    1.87163796720923   -2.95158100444052
C         6.56928545001378    1.09432341355042   -1.85806556131017
C         7.36183831542593    1.68101013736488   -0.88890646186759
H         7.67662550592928    1.10498172220533   -0.03447960287648
C         7.64312989446126    5.24333810930781   -2.15092821171427
H         8.70135126227965    5.44642240915790   -1.96121638596981
H         7.39500213512388    5.61658546889406   -3.14906556288295
O         6.91226198890162    5.96608368251487   -1.18241527183449
Si        5.34402714460634    6.43392027169699   -1.26700910477738
C         5.13360011407119    7.51241438433094   -2.82230929528589
C         5.11222000581111    8.90336856394858   -2.81193823239036
H         5.16264648054988    9.42995385035045   -1.87141274212119
C         5.02449400285817    9.63487619232150   -3.98348424871077
H         5.00589264304628   10.71478858851181   -3.94380926088258
C         4.96233602755936    8.98658353946258   -5.20440885211875
H         4.89585155824502    9.55490537344776   -6.12072926875622
C         4.98274415855587    7.60279267755306   -5.24131913605117
H         4.93181822756158    7.08569276392975   -6.18926293547414
C         5.06462074994185    6.88199214515855   -4.06411776902566
H         5.05988074518368    5.80188108716281   -4.10513454052836
C         4.12002631674670    4.99043019509845   -1.46653664101525
C         2.97562303208481    5.10626976043206   -2.25326185243223
H         2.76060711649386    6.04761437369366   -2.73906983400302
C         2.11482469390725    4.03775782047200   -2.43132230785176
H         1.23835465692721    4.15046744713370   -3.05416971145362
C         2.37709808860784    2.82448319840373   -1.81728969920284
H         1.71334316128066    1.98515157776700   -1.96492298953678
C         3.49579327258974    2.69540879900703   -1.01252466815750
H         3.70634464538167    1.75369093766359   -0.52716148738469
C         4.35093856364884    3.76829764616679   -0.83924972199072
H         5.22507399678075    3.65209852172037   -0.21726683909431
C         5.08934217541880    7.26564282902881    0.44321174050898
C         6.16855674996668    8.30672452021486    0.74020986372856
H         6.02781074364794    8.72413646191694    1.73769287581202
H         6.14035910314989    9.12472228904823    0.02593491317123
H         7.15420428383722    7.85140047068710    0.69261573801444
C         3.71156003836068    7.92403794424344    0.49141303674161
H         3.53528649608872    8.37054058465170    1.46994264140927
H         2.93178282514039    7.18813834311474    0.30736705715942
H         3.62042172006746    8.70428600169377   -0.25957963537782
C         5.14921077704095    6.19681967876426    1.53756295224806
H         5.02093261603764    6.65417097800409    2.51896874525776
H         6.10882408129117    5.68585260307998    1.52123288125671
H         4.36223094255451    5.45893650154932    1.40124224109687
O         5.31722409332161    1.24566656942531   -3.84379537310231
C         4.70964715455325    2.02413993709393   -4.84356560133496
H         4.04425181995265    1.34768143410851   -5.37767184358797
H         5.44624428399731    2.43050500307956   -5.54538070950229
H         4.12443083739336    2.84330342540750   -4.41130071139725
O         6.14352114284390   -0.19697758526143   -1.83761104294458
C         6.58844939376143   -1.02995069037282   -0.79521442419976
H         6.15568003629818   -2.00827391993086   -0.99799792177072
H         6.24249229112921   -0.67801246194478    0.18273606762833
H         7.67975345866379   -1.11284764912599   -0.78196976135692

