50
CSD_code = TIJGUQ | q = 0 | S = 0 | Stoichiometry = C20H22FeO7 | MND = 7
Fe       12.90197123208220    6.39163747157295   15.22714126423474
C        13.32783989857596    5.57626736997247   13.72924757843422
O        13.55741243645381    5.03444096716972   12.74350666078719
C        12.03425494664578    4.94313199700570   15.71270827997855
O        11.43406782757644    4.00160881795695   15.98201412726490
C        11.54112561055160    7.38574654399437   14.60356944300344
O        10.66164894456985    7.90075349953615   14.09184623573176
C        14.28675565803698    8.01082085511666   15.02871934408191
H        14.76357238802679    8.25171019610183   14.08074624555531
C        14.92049739526934    6.98385931005922   15.80818126505660
C        14.18186283842041    6.64679448278769   16.95765016425169
H        14.52019732589417    5.87485590645777   17.64107365745762
C        12.94214227472669    7.33105596628553   17.13387680607885
H        12.35436918634851    7.00527297936293   17.99058849271709
C        12.88864725517039    8.84051140225851   16.92951617205738
H        13.15872716427722    9.33652092056907   17.88018924401847
O        11.60140586250900    9.28972272476396   16.53830735027556
C        10.57210510379846    9.07564599142766   17.46952402228196
H         9.71219811128959    9.63510171103979   17.10513985752825
H        10.85239899126933    9.44757646465170   18.46283921256214
H        10.30110685218809    8.01706943958439   17.54540400862504
C        13.84087234576039    9.23968853828935   15.79956709299487
H        13.31340300920885    9.93178479230988   15.14354773338751
H        14.72537197245790    9.73610120401578   16.20588706680891
C        16.18185764665013    6.29596323831348   15.45577783561258
C        17.38106950141112    6.99235502883907   15.35200694707141
C        18.54697859738409    6.29749683529573   15.03534455055819
H        19.46923893342523    6.85316493180684   14.96514859996789
C        18.54240909263416    4.93435896406558   14.80430642309862
C        17.32610311429204    4.22273669187149   14.92605945794278
C        16.17855513410036    4.91313756769954   15.26077251237172
H        15.23452511734879    4.39662365102533   15.35440928999129
C        17.45362153731810    8.47417068654551   15.63668104567994
H        18.50804643449456    8.79062859900349   15.65212923835311
H        16.93418202442816    9.04193028968825   14.85946038081988
O        16.82425555148419    8.85130901204151   16.84361309433475
C        17.43519322618722    8.31047875113218   17.98706833142848
H        16.87061872597697    8.67820246214633   18.84149886788338
H        18.47888017098342    8.63966745225606   18.06979971962736
H        17.41155081279508    7.21488192142942   17.97699004184777
O        19.62881949850572    4.18983828670591   14.46945024421918
C        20.86245671796150    4.84178137050057   14.30004929792339
H        21.56682976110470    4.06397650743828   14.01001398752851
H        21.20406248518982    5.30851651266221   15.23019626899787
H        20.81399452598073    5.59863174833425   13.51014023443335
O        17.39520843865077    2.88615654449975   14.69554976153410
C        16.20193472529485    2.14178117711575   14.73534267961208
H        16.48547946279956    1.12157050652228   14.48246152007296
H        15.47377239154105    2.50827478642822   14.00460559963016
H        15.75070174096738    2.15428692434326   15.73313274427602

