45
CSD_code = TIJHAX | q = 0 | S = 0 | Stoichiometry = C19H18FeO7 | MND = 7
Fe        1.16994304348895   13.00045371138721    1.79122758338285
C         1.93616204628652   14.41311461264131    2.50342351649632
O         2.40691558800673   15.35093196946456    2.96556302662597
C         1.25542258513307   13.76005884120075    0.19127585456259
O         1.25717060499074   14.28731201823024   -0.82511310781582
C        -0.51877984093060   13.32695743569090    2.25874957054012
O        -1.60626899263013   13.54490392276088    2.53589581615919
C         1.52633650913753   11.70336868572171    3.40816792860731
H         1.87804044289216   12.06104996533422    4.37354928833687
C         2.56611033380514   11.46456317544497    2.44559004949551
H         3.61525406798219   11.57888510144598    2.68896508529431
C         2.11044561679769   11.08842481716183    1.16893680127322
C         0.66630182250945   11.05880969502991    1.08206487929939
H         0.29209978301123   10.83477643802621    0.08568007429220
C         0.06605940403273   10.13501946970884    2.13881892867939
H        -1.02665713574449   10.05526800101636    2.01560906626607
C         0.39769919325907   10.67874090275695    3.54305502645321
H        -0.48587941376910   11.20017533342480    3.93063623542748
O         2.85021644107695   10.83819092902270    0.07634508831543
C         4.21383412554317   11.20550995513005    0.10225878134399
H         4.59340362862626   11.01893713797579   -0.90044442713801
H         4.77781845413355   10.60460026349400    0.82152418932150
H         4.32246761038541   12.26898962961975    0.34535505507195
C         0.73542002487727    9.59387846323631    4.54351473055173
C         0.65816669908311    8.25643652396908    4.20150243020998
C         0.93057465431519    7.27340878063602    5.15003576347969
C         1.27231978497838    7.60932509606493    6.44534179963359
C         1.33772230941473    8.97552137303695    6.80529040687179
H         0.86270498333870    6.23978290905019    4.84949155568193
C         1.06600008286118    9.93958265527175    5.85482190405403
H         1.08620375436817   10.98275357764462    6.12641471141315
C         0.26474798825843    7.88486914167970    2.79943247396543
H         0.76355675202266    6.96677999116215    2.47967414227246
H        -0.82792855161455    7.72393308883186    2.75003896246669
O         0.65032577792419    8.87008222479124    1.87643528852495
O         1.55228716041651    6.72522066672080    7.44139340665743
C         1.46944549846761    5.35176468324585    7.15601489655364
H         0.45979105647399    5.06469998073390    6.84327502400916
H         1.71518853895880    4.84397678425129    8.08732121802524
H         2.18630974056980    5.05544419827225    6.38277550017309
O         1.66568607576089    9.22341940485507    8.10375564688600
C         1.73012566901814   10.55942035552946    8.53383552431224
H         0.76383285831882   11.06482494889687    8.43116798772177
H         2.49438194331051   11.12391562769702    7.98857897975994
H         2.00112128085284   10.51481751273309    9.58745333648494

