53
CSD_code = TIJNIK | q = 1 | S = 0 | Stoichiometry = C21H25AgNO3S2(1+) | MND = 3
Ag        5.78997348748175   11.75372108299272    2.08184386837931
S         3.84541096831214   12.47728682728379    3.81650289695574
S         6.53767833538918   11.64187993260031   -0.50975041532608
O         5.56859521323645    9.67485641327949    3.65548638748175
O         3.69470179523419   12.21987934439742    0.66629018064048
O         6.62983613290397    9.26172230321629    1.72790051998650
N         7.58685686490391   12.87761954071677    2.97412410335519
C         6.64100668468021    8.96555902210107    3.08060775530480
H         7.60543516380142    9.33355515117063    3.45609298912212
H         6.54380978500255    7.88382394946927    3.26957621589354
C         5.40071487615092    9.68854690093868    5.02391885972719
C         6.29363509783490    9.12321820043485    5.92034359894853
H         7.18277835537196    8.62167293144109    5.57374052806328
C         6.04516836228357    9.20513758664423    7.28166957790845
H         6.74575246839153    8.76359505764253    7.97269914135145
C         4.91341951383270    9.84545534941982    7.74998779065114
H         4.72502193900237    9.91142951548691    8.80942346933904
C         4.01593224550769   10.39621831552146    6.85163730713962
H         3.12509102124002   10.88744707557639    7.21208432324102
C         4.23555188918868   10.31609887477158    5.48498499343866
C         3.24851304795336   10.87362989853328    4.51303041742565
H         2.30065123534476   11.08929913848038    5.00510412802562
H         3.09738205455136   10.18871895262652    3.67966567345391
C         2.49803212397523   12.84017754769392    2.64062306186412
H         1.55392026988287   12.72752374891483    3.17230787044712
H         2.64602855326879   13.88719551551016    2.37844121781693
C         2.49897597711711   11.99270208381976    1.37953632791335
H         1.63774515652592   12.28923553572996    0.76200740466029
H         2.39416634320326   10.92200449855336    1.61513746152759
C         3.70798018811302   11.62720992176800   -0.61554996588703
H         2.83887639165461   11.97965498567445   -1.19206221028310
H         3.64232139411799   10.53359292406132   -0.52807853484477
C         4.97069618419143   12.04306452330427   -1.35338859360635
H         4.99674341580339   13.12806757377744   -1.45263741959663
H         4.99698690619032   11.58685801409909   -2.34154478866157
C         6.79621886778929    9.87427356408524   -0.95487115946373
H         6.86194524869278    9.83568073674033   -2.04148068345519
H         7.76815764534162    9.64723647159329   -0.51768987004969
C         5.74082956717261    8.95838782762682   -0.43868035687353
C         4.81736504154203    8.38258901654762   -1.30139067619491
H         4.89333005366356    8.58116857369159   -2.36023539210090
C         3.81174714848672    7.55833890619000   -0.82563659595264
H         3.10752629353987    7.11407679631118   -1.51064715268958
C         3.71359598422342    7.31755975208371    0.53210556037326
H         2.92581094605035    6.68921268052806    0.91745721231623
C         4.62781153321041    7.87575033973649    1.41241828230255
H         4.52226407841683    7.67870174528047    2.46738878932310
C         5.65031102075323    8.68090313615812    0.93276606735005
C         8.36070892167934   13.66322363248699    3.28669113959623
C         9.32894920028063   14.62703571380607    3.68189791705736
H        10.33049896051778   14.22549897495461    3.52903743059488
H         9.19383340891580   14.87099269785035    4.73541453860122
H         9.20880663809870   15.53051119669594    3.08449880738356

