23
CSD_code = TIJPEH | q = 0 | S = 0 | Stoichiometry = C8H4Cl6N4Zn | MND = 4
Zn       14.44062772620784    6.85613140461613    3.24499526922333
Cl       14.54091151216470    6.05887683528551    5.29162038180286
Cl       14.92899466519415    6.65562555577529    1.11079558343045
Cl       16.18275480241216   12.08348360830517    1.53654207481342
Cl       15.73898387837302   11.35215707097874    6.62016202903576
Cl        9.62965586081953    8.26656688343803    0.38756796387370
Cl        9.16296766042327    7.54529190306941    5.47054432588807
N        15.07332434539927    8.93610670484233    3.60068536960667
N        15.89583593605915   11.51891041344958    4.04408845537245
N        12.29288723202802    7.33130387852269    3.11346423189563
N         9.60418831276099    7.86642370858082    2.94252868587015
C        15.37563151483980    9.72512491094569    2.57891098469425
H        15.29485578273066    9.30417006694055    1.58734838959600
C        15.79243733582413   11.03667133820551    2.81881477440555
C        15.59694008368786   10.71600329834325    5.04935956110410
C        15.17636854241738    9.40069484170643    4.83822474695118
H        14.93599060109819    8.72200963271691    5.64355646312412
C        11.74259868046351    7.61883019852119    1.94194252314305
H        12.39004527205361    7.61954806285507    1.07723066729408
C        10.37385120129940    7.88871667119309    1.86939063555980
C        10.16911679703572    7.57251328351926    4.09970817529783
C        11.53526055485616    7.29906798295085    4.20114594498940
H        12.01827170185089    7.04567174524144    5.13357276303144

