33
CSD_code = TIJPUX | q = 0 | S = 0 | Stoichiometry = C13H9CuN4O6 | MND = 5
Cu       -4.83562760236512   -0.29706246201258   25.73136757726186
O        -4.59292543303537   -0.49736611558864   27.52837830930901
O        -5.69342037154051   -0.68680254093472   29.44825045477650
O        -7.29562731901255    0.13673275386224   22.75060636937566
O        -2.98768520194863   -1.82053117612866   22.11969368141396
O        -3.86300415765720   -2.42355926654792   24.00390975641782
O        -4.73274208212385   -2.24164838378417   25.07009796337287
N        -6.59173738289550   -0.15037934474626   26.14672588614798
N        -5.42365596883522    0.00771324668936   24.05332578573321
N        -0.88313662252863    0.30916989907559   25.61859239319540
N        -3.04280438182537    0.29248736636232   25.41312765321090
C        -5.66419409370220   -0.55079642429976   28.25076041766253
C        -6.92092944272208   -0.40559890516638   27.40286633403740
C        -8.25832212033488   -0.53904664444238   27.74379916445929
C        -9.20824993453529   -0.42598497153884   26.73332426250858
C        -8.81845923878399   -0.20348518552846   25.41766882481911
C        -7.46317361073514   -0.07109602429263   25.14990389173893
C        -6.75934031769871    0.03657896906654   23.83463258341447
C        -4.49922477296910   -0.20347970387985   22.99726063532645
C        -3.75659735727977   -1.57081695660917   23.01697014826393
C        -3.39088417293680    0.86935748637543   23.01254883020303
C        -2.51907832532829    0.63996495629420   24.19921509819820
C        -1.15904150886746    0.65327313184091   24.32521955316680
C        -2.04289780121315    0.08794168533257   26.24457009348692
H        -8.52650732860789   -0.73867200324962   28.76901816299506
H       -10.25659659788352   -0.53385054417789   26.96929908286552
H        -9.52713391911131   -0.14810698623431   24.60667628844713
H        -5.04795574673939   -0.17280344649856   22.04674284810050
H        -2.79643781835658    0.78960586582461   22.10320631705459
H        -3.85492586441608    1.85720610429071   23.06049951937669
H        -0.39693434413932    0.86744479696992   23.60609442567926
H         0.03716803938440    0.20841036403852   26.01839516870652
H        -2.16841719925576   -0.21239954036224   27.26545251927401

