43
CSD_code = TIJQUY | q = 1 | S = 0 | Stoichiometry = C18H16N3NiO5(1+) | MND = 6
Ni        5.30613379725615    3.32266251913148   10.84003969567971
N         5.72095695203959    1.68654882968129    9.99766179720601
N         4.07847510415772    2.31967443615846   11.84883762504302
C         6.46647819830150    1.45006223064134    8.89129726101820
C         6.70020859080003    2.47140968168631    7.94671415663442
H         6.29498609787723    3.45325109939616    8.13419562364911
C         7.44750445865845    2.22613416741428    6.82746691241048
H         7.62161654619885    3.01625500418804    6.11372892799446
C         7.99455980759553    0.95399126268417    6.59087595338196
H         8.58447511535488    0.78603216806810    5.70366300347954
C         7.77557510287934   -0.06280953213351    7.47827633641798
H         8.18145485335486   -1.04768766037082    7.30499492990949
C         7.00555483622887    0.15206014661317    8.63922568015715
C         6.73480895128276   -0.86954961971062    9.56787471025332
H         7.14959822430621   -1.85352847838649    9.40925194417605
C         5.93539528774944   -0.60959902828241   10.64725129053862
H         5.70154280297280   -1.38793214376225   11.35324322969835
C         5.43018821120348    0.68941521866931   10.83491038649639
C         4.49644615989000    1.05434196404414   11.90114109828736
C         4.01483514901903    0.15389044441498   12.86823434850325
H         4.39062182357321   -0.85429986693949   12.90379756643721
C         3.07952548695637    0.57765839705904   13.77266076707537
H         2.70981512124153   -0.08617397789168   14.53953334436304
C         2.57427718779425    1.88834343252401   13.69163731732352
C         1.56691530228108    2.36964397043860   14.55204929611893
H         1.17974296045609    1.70855027078451   15.31220415218167
C         1.08752510531729    3.64306774535804   14.41690728357245
H         0.31684667673476    4.00806022761376   15.07742421604831
C         1.59061565173642    4.48385488963463   13.40990428029609
H         1.19155244734920    5.48089785512978   13.30704348200383
C         2.57393555928904    4.05269305968274   12.56216976868248
H         2.96681615052144    4.70258102577596   11.79569153216149
C         3.10621547622726    2.75223873092021   12.68692331660809
N         6.07377539525486    5.39566548699155   10.83482786150519
O         6.55533396671105    4.49017743111517   10.11321121712905
O         5.21856067619062    4.99146894385962   11.65587416421050
O         6.41009358769386    6.52848868129884   10.75667162539858
O         3.76422757092714    4.12735067057150    9.22669388011730
H         2.81450676477412    4.07374568426333    9.36532094258957
H         3.92446181277080    4.02918955611982    8.28375262244711
O         6.98755575421349    2.78638556866380   12.49485940154779
H         7.88901584625770    2.91589450830756   12.18185189141041
H         6.89606942858243    3.29409499857918   13.30800515983910

