78
CSD_code = TIJTEN | q = 0 | S = 0 | Stoichiometry = C21H52BNP2Ru | MND = 6
Ru        2.58339818603036    2.11385555677710    2.98006481156150
P         1.30914052444219    1.74983830233158    4.90553503617176
P         3.64963353538367    1.86218450133231    0.91563296041810
N         2.81566960049384   -0.11727028424921    3.05352918087269
C         2.58289539748437    2.25925943924213   -0.62541562885591
C         1.55017062096276    3.68303396689825    6.94458463256339
H         1.95873293238908    4.26302379279887    6.11970244164532
H         2.03477206699614    4.00796196698248    7.86578952088874
H         0.48989751223673    3.90346879838869    7.03392829184122
C         6.14919573083947    1.62961557931866   -0.67009324759141
H         6.01737819997097    0.55247395461520   -0.61464310968738
H         7.21938121063071    1.83219385843921   -0.61393005942849
H         5.80873880243949    1.96865951725207   -1.64072728819037
C         4.05050978147068   -0.43321246649737    3.76907805222036
H         4.01322264979059   -0.02526460289574    4.77723535451380
H         4.90217485049510    0.01430062565787    3.26058859361967
H         4.20355185198164   -1.52137970146344    3.83033568569238
C         1.15328882198657    1.38897656825414    7.84860194939123
H         1.16815304769855    0.31845601916350    7.66289831042368
H         0.13055606227138    1.69167130460891    8.03660722439962
H         1.71775968267969    1.57072455355421    8.76394131007303
C         2.05490728528848    3.67666584891175   -0.39500600815575
H         1.56617964252083    3.72444854815645    0.57952875382712
H         1.33216232122677    3.94452593484352   -1.16512704403113
H         2.85712432939635    4.40954622116772   -0.40800125382278
C         1.80320675796961    2.19258877161018    6.71714333947379
C         1.34817753322303   -0.11344361348218    5.08189602927020
H         2.10737619479101   -0.38113540144856    5.81838401479624
H         0.38821529304950   -0.49233200554544    5.43864102995047
C        -0.56600555460479    2.10713589758751    4.74232867806329
C         3.26360677346588    2.16683109890413   -1.98966868640890
H         4.00128711183828    2.94993358869914   -2.13246176015770
H         2.50660051919365    2.29033156938101   -2.76493755144117
H         3.73251498100176    1.19653160867990   -2.13775186090246
C         1.38488988957251    1.30618445756808   -0.65664773418659
H         0.90559771876513    1.27471979213322    0.31840426447638
H         1.67466418249377    0.30010500959838   -0.95380216944320
H         0.65336100212076    1.66839895665134   -1.37796079146141
C         5.46033571228093    2.36808166200621    0.48256676125869
C         3.86790259276140    0.00754447989036    0.78509799087583
H         3.71892226075066   -0.33207705956901   -0.24194663200335
H         4.88787440504047   -0.24769568918125    1.07658194362569
C         5.49906404940830    3.87274850171257    0.21492318563302
H         5.05317010071900    4.12374615192046   -0.74370107822464
H         6.53145588584992    4.22355690716719    0.20202553168865
H         4.96554805914038    4.40700398729946    0.99830836746982
C         2.87477721588740   -0.69412050491114    1.69984380881791
H         1.87774825049184   -0.60580107595023    1.26450103988600
H         3.12435419294224   -1.76720097118123    1.77147269037779
C        -1.42140946981384    1.94038959388764    5.99676210986571
H        -1.20517582087015    2.69819387973745    6.74294858336047
H        -1.29779951359920    0.95330916141450    6.43687802088034
H        -2.47034357650453    2.04989969882080    5.71911047584100
C        -0.65799318988209    3.54554312420175    4.22911843817823
H        -0.04791029215416    3.64637313080572    3.32996058171137
H        -0.29563498619918    4.25726671236291    4.96598479026884
H        -1.68941748479580    3.79832020292449    3.98530849635582
C         3.31615325989539    1.95484885739459    6.80419377612478
H         3.55717203979242    0.89198011480676    6.82055156819767
H         3.70653495551520    2.38836715549731    7.72481064499157
H         3.83108950041413    2.42540093663510    5.97011947727702
C         1.67781254687511   -0.75143355922655    3.74038029881254
H         1.88818642987351   -1.82651797387901    3.87784430416647
H         0.80892076783399   -0.65643308205846    3.08664459950706
C        -1.15442016129962    1.18325665663587    3.67239232174110
H        -0.53718121793879    1.20478509937523    2.77797101184664
H        -2.14987097011837    1.53253073209870    3.40088663573829
H        -1.24708852546471    0.15872225958624    4.02766738474594
C         6.28081386718566    2.09559031493821    1.74971987633641
H         6.43972537269231    1.02858607678316    1.90563171163008
H         5.79264078431217    2.51608299592290    2.62562410703181
H         7.26351807843890    2.55849710382452    1.66092233110470
B         3.61394980311855    3.99602198973937    3.63805658416427
H         3.98602869214933    2.74244342600620    3.82004268609969
H         3.38935672396499    4.55246792306743    4.66223600738696
H         4.38398540613457    4.60053432592040    2.96678374447232
H         1.29860856971061    1.82677566284406    2.21798656262944
H         2.44600863547275    3.78060355680914    2.94758398773872

