26
CSD_code = TIJTUC | q = 0 | S = 0 | Stoichiometry = C9H12Cl2N2Pd | MND = 4
Pd        6.30335737382911    2.28873105037503    2.42355126552189
Cl        5.73962661582831    1.91374745637143    0.31661627099758
Cl        7.63205462656351    3.92399542468233    1.73062543199938
N         6.73357215481265    2.47737105787260    4.35525810852578
N         4.95186874851934    0.98218170826429    3.16741734231967
C         4.90673652494889    1.02770910636986    4.52056845598723
C         5.93436776423722    1.82920832176779    5.13071978884059
C         3.95243786958478    0.30472157300276    5.24157082376835
C         7.91558041708044    3.15934083697806    4.83223433111693
C         4.06859144266620    0.23231432582120    2.51357864103209
C         3.03808055657775   -0.47032039074598    4.55742629687080
C         3.09881877203592   -0.50723340090425    3.16722894786229
C         9.11270733269575    2.30001534533876    4.39828519345216
H         9.04001598273693    2.08698090105653    3.32610712382609
H         9.12455995524051    1.36133885610041    4.95085889301549
H        10.03865485439371    2.83555279005597    4.58419840978632
C         7.95195756293280    3.44691216636444    6.33063180608059
H         7.05537827632908    3.97654978451625    6.64652677691069
H         8.81035018703983    4.07799964677736    6.54231449579851
H         8.05589888989331    2.53335764118912    6.91317921420753
H         3.94143799508740    0.36546881078160    6.31873273906029
H         2.40234483654757   -1.10096124529687    2.59813420202449
H         2.28982315510896   -1.03609520542228    5.09071459573139
H         7.96483067946422    4.10290871616795    4.27051305271927
H         4.15306161538062    0.23795684356382    1.43241837623066
H         6.03038581046558    1.82344787895482    6.21248941631357

