56
CSD_code = TIKDIC | q = 1 | S = 0 | Stoichiometry = C24H28ClN2Os(1+) | MND = 9
Os        5.78310791167480    0.08544464951108    1.06788320844133
Cl        5.33026989345200   -2.11239973065997    0.77003465913521
N         4.68861377042418    0.43627710143850   -0.52241825313234
C         5.11625728244251    0.40808725886738   -1.78592319042598
H         6.17591954247683    0.25236987250501   -1.93672462087586
C         4.26454686547922    0.54917144980168   -2.86206808274138
H         4.65783633314486    0.51583390998077   -3.86450250255341
C         2.89921698997013    0.71914484346510   -2.63437556249516
H         2.21685655853967    0.82314378514466   -3.46219698065163
C         2.43984315177883    0.73842365985016   -1.33486002638337
H         1.39268186794315    0.85305339521816   -1.10714870904011
C         3.35225231645786    0.58890079176923   -0.28691435480216
C         3.04358988625525    0.58237822569829    1.10765152458978
H         2.03854005596361    0.73211641656892    1.47652415118853
N         4.06655555418290    0.41583815691891    1.89992468849261
C         3.90075176485053    0.36587197679832    3.34795058209680
H         4.70094995334523    0.98973934833331    3.76803713138166
C         4.12947216724438   -1.07699688428074    3.81454281143766
H         3.97466817977122   -1.14062460396917    4.88771367472446
H         5.14479355262889   -1.39392154562757    3.58233794581125
H         3.44576441027056   -1.75576105626677    3.31388532208606
C         2.58229260525885    0.94171723894815    3.82409910159575
C         1.42235906250383    0.17775148329710    3.88687186457890
H         1.43699117416923   -0.86043249962849    3.59460623506864
C         0.23827016967007    0.74072610472610    4.33110549083629
H        -0.65337578878620    0.13516561598856    4.38177830872347
C         0.19665021157654    2.07104975748597    4.71221705763845
H        -0.72638778722603    2.50569257500221    5.06242363062010
C         1.34556697740712    2.84028280778695    4.64491491964775
H         1.32237624827404    3.87747118296282    4.94146163271550
C         2.52977389295261    2.27823719629093    4.20174003674262
H         3.42332588839763    2.88480901566680    4.15573405774667
C         8.09131512679841   -0.47119176501609    2.37152011532569
H         8.35563270307748   -1.31696526790830    2.99256470708781
C         7.50944645211136    0.65021602170839    2.95191118295803
H         7.35302877017815    0.67940405961360    4.02242422215139
C         7.16980082187309    1.77640990691455    2.16814274797613
C         7.48932602999595    1.74138972446773    0.79268730768782
H         7.34909310169326    2.63635110910472    0.19702448220000
C         8.17713788147425    0.64465458394352    0.23832612159816
H         8.52528719129340    0.70560827474864   -0.78308204764758
C         8.45554592430242   -0.48962318978002    1.00319269665217
C         9.22105922515176   -1.65926061970911    0.44184146795044
H         9.10472186610846   -2.50307732037553    1.12937008282184
C        10.70822045394083   -1.29165487249834    0.37367223212976
H        11.08545977479838   -1.01970477797448    1.35697507331713
H        10.86856122504639   -0.45418502109678   -0.30169456833913
H        11.27882261403798   -2.14108139666366    0.00938451037320
C         8.69989069744480   -2.09053418637430   -0.92974951923667
H         7.62587057914128   -2.26461175187485   -0.89092148635335
H         9.18315190209758   -3.01712921742879   -1.22614318747883
H         8.91499054915011   -1.34533198372630   -1.69199787409784
C         6.66607974747967    3.03953615106885    2.80062565606360
H         7.49642307318487    3.73754443635017    2.91587762399201
H         6.25223306142813    2.85407754853048    3.78897310780523
H         5.91197056569799    3.52189805438502    2.18106959287010

