73
CSD_code = TIKHAY | q = 0 | S = 0 | Stoichiometry = C40H20HfI2N10 | MND = 7
Hf        3.20448952215112    0.20969926536975   13.37236668167565
I         4.02404542427594    1.60954220193572   10.99496430262409
I         4.87391463358104   -1.92675493942379   12.49094110605039
N         2.44776136310241    3.68648232268099   13.41169644480241
N         1.39769581099041    1.52149428549226   13.39784210674464
N        -0.36212909831657   -0.11033341669976   13.32057048445805
N         1.61483834203840   -1.03759524045066   14.31880272647451
N         2.97739799978821   -2.52533699264232   15.61946086951079
N         4.13910493831338   -0.44069067288639   15.32226388113419
N         5.88152679743227    1.19822112374015   15.47887533069408
N         3.97068824406915    2.07268979530041   14.33379091940996
C         1.44784881492494    2.86815642253386   13.17223987739280
C         0.16807848608341    3.33199868933909   12.67571261469847
C        -0.28876367472134    4.57661059196370   12.27456817677931
H         0.36807528961512    5.43102517260742   12.29168895340380
C        -1.60297193252686    4.66958310476062   11.85170547314620
H        -1.99185816359003    5.62262663798252   11.52559152645807
C        -2.44301215979202    3.55697488742109   11.84261197137869
H        -3.46563260811286    3.67311722682501   11.51473516558824
C        -1.99460268096652    2.31195283753777   12.24672787098533
H        -2.64792035549008    1.45259076782348   12.25754681861996
C        -0.67368790989075    2.20561211418595   12.65368391480381
C         0.12882543493720    1.09859699622460   13.13319058402577
C         0.32154058340558   -1.08513971789694   13.88362647695107
C        -0.25492509314639   -2.37838123888218   14.18483309805106
C        -1.49588157936384   -2.94095675517343   13.93236586954387
H        -2.25798362349688   -2.38117734371233   13.41276304025254
C        -1.71294774874396   -4.23499008457668   14.37153696870895
H        -2.66793314072118   -4.70552758667737   14.18892760016169
C        -0.72426806017053   -4.94784327346349   15.04857721855286
H        -0.93436792155526   -5.95612491332160   15.37286374668192
C         0.51489301515775   -4.39055874236955   15.31124161346357
H         1.28636466849383   -4.93308669215865   15.83305752974904
C         0.74139660588201   -3.09753152442353   14.86931282749006
C         1.88665690842398   -2.21318860203386   14.95618849415226
C         4.00455910503770   -1.72365200554891   15.77654022912315
C         5.20340221760667   -2.12754554350330   16.48615302198536
C         5.57529987535193   -3.30785596352694   17.10557874557062
H         4.90068537439845   -4.14798906046895   17.13617046423829
C         6.84079096155733   -3.36231414731786   17.66587348566740
H         7.16798191091245   -4.26963590269890   18.15153896367379
C         7.70748777209366   -2.27321750271243   17.61056744411075
H         8.68770790878891   -2.35860220292982   18.05551528928980
C         7.34170352680874   -1.08970856324059   16.99089245192864
H         8.00863063602639   -0.24448481905590   16.93548114170565
C         6.07939265526915   -1.03040979103934   16.42656873642243
C         5.37320511139216    0.00427128491551   15.69611133218840
C         5.21543287351796    2.16378670563199   14.88292264475502
C         5.70277101480245    3.52623301029201   14.79047673305579
C         6.88950467482866    4.12996064208995   15.16968231121932
H         7.67736242731831    3.55348224231365   15.62728439537620
C         7.01986412293405    5.48730055689933   14.92812823829354
H         7.93487021499868    5.99023491452963   15.20383858749473
C         5.99691105374783    6.22051612845485   14.33043690249948
H         6.14136999756830    7.27610065203584   14.15472832848150
C         4.80468307392799    5.62424496474825   13.95536671323160
H         4.00880297506573    6.18180742646313   13.48896989477677
C         4.66801013952461    4.26745497561456   14.19317250643438
C         3.59801112646457    3.32572168796489   13.92808216291057
N         1.85965144560881   -0.78517024353229   11.57277172099280
C         1.06843921502436   -1.12080942806409   10.80698283991175
N         2.49432645197927   -3.66409603437456    8.69303548181191
C         1.50438164065852   -3.09977983954112    8.79934259231557
C         0.04773533932581   -1.47322331704856    9.91584851243672
C         0.25691359830491   -2.43727566975358    8.91313124278208
C        -0.78231858855247   -2.74841741554300    8.04095207177908
H        -0.61894967231538   -3.48685946571233    7.27063816801424
C        -2.00572241877166   -2.11370950416113    8.16750032437498
H        -2.80534143343786   -2.35826052785250    7.48517697208266
C        -2.21174445879445   -1.16953270110501    9.16517233049778
H        -3.17051926941371   -0.68323034224723    9.25786400455823
C        -1.19382435827464   -0.84510024537005   10.04133594357656
H        -1.33702537334212   -0.11949166253757   10.82729478581396

