83
CSD_code = TIKKAZ | q = 0 | S = 0 | Stoichiometry = C40H35O5P2Re | MND = 6
Re        0.16827037402010   18.80531182227422    2.13392405562364
P         1.49701433900374   20.70966489073190    1.44918217880114
P         1.23734417138631   17.92919646899821    4.11096850304256
O         2.03524385204792   17.96136693001951    1.58271398234392
O        -0.32639170600690   18.89877055962585    0.08593353802598
O        -0.37157981315989   16.82435534390198    1.97514623715325
O         2.39919904339735   20.35549926517251    4.40045379293960
O        -1.03603073709545   19.73237213044237    2.80696301959151
C         3.12338189982012   18.60266480903946    1.27062128003961
C         3.13156693412102   20.01506588517520    1.16945972948203
C         4.27634340250097   20.70349942771173    0.79030010117916
H         4.23363973164641   21.77492212451945    0.64788017599085
C         5.46299121562256   20.02653457301970    0.56810539152659
C         5.46967392403561   18.63804633822353    0.70419211692365
H         6.39165592376843   18.10219424010809    0.52546811296923
C         4.33679859144133   17.93376255832109    1.03856250273436
H         4.35000272435911   16.85703415729454    1.11319626008631
C         6.71540298777394   20.75407102745898    0.17742111588284
H         6.53915899880622   21.82492341757915    0.11426986626537
H         7.07246881150523   20.40552273198958   -0.79084024590699
H         7.50443068285595   20.57319433313949    0.90695770335820
C        -0.01264758651893   19.91823717041651   -0.64999439104793
C         0.80674918994779   20.97939719311512   -0.19534266836871
C         1.11289905905843   22.07179483226320   -0.99840410960889
H         1.74158400783740   22.85913506363978   -0.60172742399584
C         0.61070350664998   22.16014598912036   -2.28370689074156
C        -0.19096479413551   21.11532825031399   -2.74901347367978
H        -0.58404538304441   21.16896062972753   -3.75496406049495
C        -0.49790105411945   20.02560039465837   -1.96932513014456
H        -1.12391733784282   19.23064796191380   -2.34459049775242
C         0.90864430758701   23.33763293544671   -3.16424243800587
H        -0.01063176785742   23.86602150919042   -3.41632002510240
H         1.37057400359955   23.01130331087773   -4.09544396094254
H         1.58111269687767   24.03240301811512   -2.66693480662266
C         1.55576709064686   22.34163238372956    2.22352465919518
C         2.69956578222599   22.92899207274163    2.75124379440229
H         3.64644107677240   22.41013716776231    2.70291820902180
C         2.62488512075359   24.18839161900225    3.32318066295352
H         3.51645967938850   24.65093432304629    3.72227039855877
C         1.41351717309685   24.85691675786720    3.38225791851710
H         1.36241235180664   25.83915081165357    3.82777025225427
C         0.26688615269259   24.26284339091937    2.87575942863998
H        -0.67872890179001   24.78042542669211    2.93331370191696
C         0.33553147004341   23.00877778259366    2.30106992452285
H        -0.54805195897988   22.51910532903509    1.91336443803097
C         0.05248742148891   15.90521792119954    2.78244252983121
C         0.85740931989722   16.18513832542915    3.91259606837035
C         1.26095053351836   15.18576284553536    4.79130793018946
H         1.84462180660750   15.45300368100994    5.66343294878189
C         0.91405529605848   13.86672264469953    4.56311468772102
C         0.14405348373269   13.57430214872181    3.43426806596462
H        -0.13134559789654   12.54588664510118    3.24458373782481
C        -0.28014927309361   14.55171764968643    2.56644722436937
H        -0.88662946924521   14.30894876566141    1.70728509543222
C         1.34081245280464   12.77027881013180    5.49389283727549
H         1.93851761609534   12.02904383111957    4.96382781757502
H         0.47036709036276   12.26086588543916    5.90591328648916
H         1.92982195317214   13.16777045344103    6.31686140052806
C         3.41947836776599   19.45931952506652    4.35555465424376
C         3.02502161873537   18.12386461623355    4.24515797404293
C         3.97654416519559   17.12524249585978    4.13097177773160
H         3.65615514064121   16.10065592915828    4.00694732863993
C         5.32992198333440   17.43956199800123    4.16267437324348
C         5.70540336881975   18.77059974989553    4.29704958505252
H         6.75503459721249   19.02460603214966    4.31713493233160
C         4.76417720631313   19.78242796376002    4.39219021713167
H         5.07710175102450   20.81367889145463    4.48215238311776
C         6.36578708082397   16.36721877289519    4.01187659813500
H         6.67017455784543   16.29492836081765    2.96768866697562
H         5.97216740014447   15.40095894331188    4.31649837811674
H         7.24954670890165   16.59329751857459    4.60414040342290
C         0.60617662766707   18.34669131538716    5.76194967368944
C        -0.70743310288288   18.78888008183144    5.86602027303531
H        -1.28216763318352   18.93590590959334    4.95897691674291
C        -1.24775243531624   19.05483221104637    7.11060729124524
H        -2.26733554786599   19.40027096618133    7.19409016937028
C        -0.47901868841774   18.88184100516772    8.25129021725182
H        -0.90053129465569   19.09016450829377    9.22371568964475
C         0.83234548636322   18.44788043771197    8.14710764481141
H         1.43137233484631   18.31883469352320    9.03709265806628
C         1.37847083615295   18.17805144173599    6.90465900229429
H         2.40422219405309   17.84541327689721    6.81941937725346
H         2.72533540221597   21.25742537620663    4.51851725864275

