95
CSD_code = TIKKED | q = 1 | S = 0 | Stoichiometry = C46H38N6O2P2Re(1+) | MND = 6
Re        1.34040118047084    4.45475360880141    4.24302753522683
P        -0.52847506380638    3.32563853925243    3.17476732750827
P         3.42168985376177    5.80681141904607    4.34134785429118
O         1.82962140996554    4.67741251082798    2.16668651475246
O         3.40826883025658    4.72300871670564    7.19521674781591
H         3.69310041079671    4.33707465786125    6.35568768613246
N         1.03384630049171    3.74033016411442    6.05695873114078
H         0.57753683113676    4.25922270059693    6.82954063881161
N         1.35273692555547    2.55074578827097    6.40526313842425
N         2.23149651942710    2.54148632174135    4.26711604522657
N         0.52691987556794    5.97628407039028    4.70298134232698
N         0.07927082603175    6.95728651372768    5.21228110813275
N        -0.01264519125410    6.10163729461974    7.36085019073152
C         1.14734702351628    4.12175050014411    1.20652660744628
C         1.58179294709905    4.22212658922161   -0.12797850725681
H         2.46517275478222    4.80877864440631   -0.33385449923701
C         0.89527635889431    3.58990892314819   -1.13906450486338
H         1.24885403541628    3.68229495499104   -2.15507396974269
C        -0.23526878846298    2.82253670231068   -0.87474338315157
H        -0.74775495160684    2.31684939542193   -1.67763215581766
C        -0.69531291387400    2.71151083084080    0.42062424921770
H        -1.56146266078844    2.10300977449409    0.64660107303866
C        -0.02686774457932    3.36660513263078    1.45226856325840
C        -2.13644107065791    4.14132107312494    3.38992676599523
C        -3.03266734229785    4.29530350547968    2.33903432281516
H        -2.78015481808482    3.93830116345393    1.35175813055178
C        -4.24567604080002    4.92428595623315    2.55935880279986
H        -4.94177079045333    5.04265285474194    1.74293165009335
C        -4.56508150738853    5.40442910567489    3.81865198787879
H        -5.51212761472944    5.89472661341594    3.98376565812030
C        -3.66462412001244    5.26746623884779    4.86373850100652
H        -3.90623925146459    5.65434323593616    5.84234755914747
C        -2.45059679258730    4.64211361273739    4.65236057944751
H        -1.73201991876647    4.55241719942108    5.45812629086299
C        -0.76746900495258    1.59397718533103    3.65433961183866
C        -1.45284875020962    1.29891236372060    4.83054057610308
H        -1.93116402865246    2.09251099843358    5.38662734806045
C        -1.52532125445509   -0.00691166452125    5.27639171147923
H        -2.06027896349237   -0.23382050327445    6.18570574903380
C        -0.90853899350507   -1.02164952591735    4.56120450017848
H        -0.96392234529628   -2.04015161114573    4.91332127706391
C        -0.22484229263703   -0.73077678735137    3.39209951997837
H         0.25035331745883   -1.52111665026323    2.83065268331468
C        -0.14723602423479    0.57329004096318    2.93858318182268
H         0.38673372204962    0.80059681694174    2.02580073746380
C         2.00713270816972    1.87079353948877    5.43152704830527
C         2.42377626400174    0.54728133997693    5.62144684652038
H         2.20987914136420    0.07622871513776    6.56528208824208
C         3.08171279862890   -0.09131359627372    4.59859155281218
H         3.41688907913866   -1.11024503081651    4.70958200844263
C         3.30664032292779    0.59920741666200    3.40630615229632
H         3.81386479011252    0.12936212087288    2.57999362300724
C         2.86431876990279    1.89784607778896    3.28655365563690
H         3.01007414129362    2.45005207242286    2.36811613056322
C        -0.14427413754277    7.16315253609006    6.55681698501218
C        -0.46670319647358    8.43900989408317    7.01482813369651
H        -0.56239432803944    9.25188055994314    6.31489815491843
C        -0.64309830431932    8.61119038289825    8.37494124177197
H        -0.88992324632615    9.58295716166967    8.77443004126779
C        -0.49945121464532    7.51689289504686    9.21789609804983
H        -0.63037691723854    7.61371282984727   10.28308759913060
C        -0.18818109668153    6.28775945969078    8.65738516371911
H        -0.07337448217969    5.40472920958913    9.27159870377978
C         3.46380189603068    6.75617200459614    5.89234771825083
C         3.35948235357554    6.07438034411896    7.11312061333118
C         3.18871273648929    6.78917113431439    8.29367036473772
H         3.11050958879758    6.23763219655210    9.21669419754908
C         3.11542663112888    8.16721732854763    8.26613114067257
H         2.97770579839153    8.71219878861672    9.18696199070994
C         3.22205550011940    8.84934389444613    7.06334630972356
H         3.17048085429911    9.92639983813027    7.04382512866078
C         3.38574264934360    8.14775983250639    5.88553800358633
H         3.45305496009959    8.67685984470728    4.94651078899737
C         4.97506981418175    4.88218639047602    4.18227888962519
C         5.93162881129606    4.78761126682947    5.18843560917113
H         5.80666653800856    5.32237704637840    6.11994417087256
C         7.07170311903388    4.03009388835479    4.97742421175538
H         7.81786818140602    3.96312979717219    5.75423913438332
C         7.25814407288903    3.36569960817272    3.77651932910845
H         8.14829197585274    2.77599312711799    3.62082229100628
C         6.31079811886646    3.46809104673282    2.76826387414329
H         6.46613898232451    2.96330302788778    1.82661863692265
C         5.17305503532105    4.22433323930263    2.96854244658621
H         4.43234941695291    4.33795809787176    2.18847889414965
C         3.55073114058751    7.06289146242680    3.04050839152415
C         4.80516600876587    7.53143711694584    2.65645567481612
H         5.69832008794255    7.13913147576060    3.12297633211273
C         4.90519863516357    8.50147946373563    1.67581643303445
H         5.87785620669482    8.86304966103304    1.37845168194902
C         3.76210648284967    9.00456107227461    1.07488820588570
H         3.84552306778597    9.75583968283114    0.30450232980765
C         2.51376483619042    8.54259186050498    1.46048439937616
H         1.62366597036099    8.93370811559191    0.99143723818077
C         2.40316729555514    7.57570666585609    2.44348017699051
H         1.43109125662625    7.20500911770239    2.73943868717605

