47
CSD_code = TIKLIL | q = 0 | S = 0 | Stoichiometry = C12H26Cl2N2O4Pd | MND = 4
Pd        7.82402578580475    2.77699583555734    2.45738599481061
Cl        7.82526968644286    5.10998517375167    2.45915544929509
Cl        7.82346846238685    0.47270010995496    2.45862507841034
O        10.25439088826080    3.31242252368526    3.75109283381215
O        10.93292753977470    3.41928254723953    0.89622373376029
N         7.40719850588860    2.82269376744104    4.49282924636386
H         7.04284053857460    3.78175842151902    4.56619198916582
C         8.59039435648328    2.68812681450574    5.34198307404108
H         8.99795530197911    1.68040076166434    5.19972284708545
H         8.32051228099580    2.82093571592408    6.40034953737922
C         6.33509469960657    1.92222524096921    4.91886663242720
H         6.02891751858786    2.16241555883526    5.94707872319515
H         6.69585107570251    0.89096929454208    4.87656595005953
C        11.05572866696179    4.32871237472543    3.17390043725863
H        11.79837169085407    4.67939746563858    3.90697596769297
H        10.42067151511530    5.17221728886120    2.87119072649868
C         9.66674457895859    3.70568799682660    4.97248604847034
H         9.22131688210977    4.70737738183616    4.87585067571500
H        10.43721637296259    3.73976942662111    5.75954770039097
C        10.50803201433206    2.06451489531787    0.93070728724539
H        10.21053608939445    1.77317219595022    1.94949149816519
H        11.32487403480133    1.40833207789948    0.59222529050581
C        11.79440184063396    3.78249598079596    1.94798824871301
H        12.43462128372389    4.57988986312490    1.55802672178313
H        12.41977675840881    2.93033644174105    2.24107195091292
O         5.39304765859778    3.31234747764799    1.16386396947958
O         4.71467222461322    3.41923662462515    4.01875613295453
N         8.24040899700494    2.82273264371412    0.42191180045466
H         8.60475334587457    3.78177503213573    0.34845106413406
C         7.05710745899888    2.68810511437036   -0.42707771355353
H         6.64960931584654    1.68037592036772   -0.28474301885165
H         7.32692431750016    2.82088649036760   -1.48544785534638
C         9.31254768119614    1.92225489939610   -0.00397683361231
H         9.61878614660422    2.16241621266164   -1.03217390014080
H         8.95181549543500    0.89100180844453    0.03837033188120
C         4.59173629083069    4.32862673418904    1.74107293095830
H         3.84903130255946    4.67931429167121    1.00803588192320
H         5.22678604698583    5.17214843968988    2.04375124808365
C         5.98070815419736    3.70561171514171   -0.05751808201270
H         6.42610524604473    4.70731852887622    0.03911283217463
H         5.21022676476560    3.73968986881884   -0.84457771873180
C         5.13954719521443    2.06444197299034    3.98428853738359
H         5.43696548870166    1.77307950653666    2.96550264115037
H         4.32272367154392    1.40828454092718    4.32284958865235
C         3.85314667406819    3.78245107349396    2.96706435384565
H         3.21297227043645    4.57987389427008    3.35704042750110
H         3.22773988423468    2.93031205473599    2.67400973851455

