47
CSD_code = TIKLOR | q = 0 | S = 0 | Stoichiometry = C12H26Cl2N2O4Pd | MND = 4
Pd        4.19916173711801    8.23665660244196    3.86984395841193
Cl        2.52447498324946    6.87072865358007    3.05959969842778
O         5.06675124270922    6.49518102896535    5.92947728795343
O         2.47015371927601    7.51096894801426    6.50312099467761
C         3.94665471603497    5.62495618149781    6.02827975908010
H         4.25969712925497    4.64781757649944    6.42523198951031
H         3.46400377953957    5.49609594270785    5.05056883202055
C         6.02284919320067    5.72123741533048    3.80499574424215
H         6.95304359748568    5.28232738685232    3.41262630492715
H         5.21154085517535    5.00272258329646    3.64395079294234
C         2.81238942867807    9.83099900450382    6.09457044861681
H         1.83437259280409   10.16693290671925    6.46951629195912
H         3.54357415857330   10.63267365386879    6.23409661169029
C         2.93119385220496    6.26980156109233    6.97797449672576
H         2.05323005595580    5.62043855046577    7.03939028167782
H         3.37131615436281    6.38510725525740    7.97732798738044
C         3.27870859747040    8.61445867182950    6.88349953407810
H         4.33476721391742    8.42107919880636    6.66093786168599
H         3.16662630219154    8.80734405750588    7.96254702991986
C         6.20351341738707    5.96180818444151    5.30642396025556
H         6.49340885198924    5.01269387117749    5.78514752904086
H         6.98829075465910    6.70694104540962    5.47352745644775
N         2.70868389256396    9.52770863859142    4.66495351923964
H         1.94945412091815    8.84405208648842    4.54639560771355
O         3.33238711943847    9.97783847908130    1.81259490108233
O         5.92897730185192    8.96225477008781    1.23862833577420
C         4.45237129227157   10.84817914579306    1.71354899077619
H         4.13915454524973   11.82525257186971    1.31657351022183
H         4.93513133757214   10.97715015018224    2.69119480529068
C         2.37626357038675   10.75190401742802    3.93692128523157
H         1.44594253219072   11.19060610066074    4.32923184099263
H         3.18737406121753   11.47067176615994    4.09781690480976
C         5.58688250085413    6.64224851387885    1.64736116211274
H         6.56485194255066    6.30632065365421    1.27234174087740
H         4.85570593415740    5.84055447024020    1.50797555802805
C         5.46777823477772   10.20336043624328    0.76376974424224
H         6.34568668697774   10.85277651837430    0.70219133612637
H         5.02755097647991   10.08793790971465   -0.23552398773244
C         5.12042036040921    7.85870945793192    0.85842626980578
H         4.06440655642185    8.05205067464646    1.08112928959747
H         5.23229418246115    7.66576935925448   -0.22063266961733
C         2.19554322865485   10.51114146460034    2.43553428334703
H         1.90549223436182   11.46012340564436    1.95665130074394
H         1.41089768196255    9.76584595227599    2.26855151461866
N         5.69084464474275    6.94553615908380    3.07694474354051
H         6.45028295355911    7.62896787085330    3.19541371026726
Cl        5.87319977473059    9.60246914699744    4.68305145123829

