121
CSD_code = TIKVOB | q = 1 | S = 0 | Stoichiometry = C46H69MnNO2P2(1+) | MND = 5
Mn        7.23315396975962    5.07607562949075    5.50540704351106
P         5.50005349122909    3.50404011162694    5.25975121377371
P         9.33662898289214    6.11735891124622    5.31369690542224
C         7.10567491736300    5.25270224958385    7.26632456648405
O         7.02495651035465    5.38675856228278    8.40852439385610
C         6.23581535625922    6.53325132634125    5.35899996341092
O         5.57964204516198    7.48585050644364    5.31209054395535
N         7.61683695059845    4.52771298295982    3.54250907419153
H         8.14997966632877    3.66881162898420    3.75098782991284
C         6.45687276521786    4.10694271084007    2.74256232885049
H         6.77949431148979    3.74529387145914    1.75418142179004
H         5.81619176326789    4.98020463121941    2.58969887175922
C         5.70658505726594    3.00142867017755    3.47787759115448
H         6.29775134685358    2.08187781438185    3.43938273884215
H         4.74293247195972    2.79452755312960    3.01160839352320
C         8.52014528825320    5.39186776006831    2.77073625282557
H         7.99397801803170    6.32677957728418    2.56098820869330
H         8.77411619435691    4.92337386587848    1.80714573653310
C         9.79364108129234    5.64497289236045    3.57096611939224
H        10.41209869917149    6.41304059249567    3.10456876692161
H        10.37916434258248    4.72089316335457    3.60763446186907
C         3.70510430661653    4.07269660983344    5.39507092176565
C         3.58467752420410    4.85408312034739    6.71004234865371
H         4.34456931111919    5.64357488462828    6.74037901124321
H         3.76053000993320    4.19649151767499    7.56176210964566
C         3.44050070642017    5.02261329422105    4.21928649766000
H         3.47879856906202    4.48121876229283    3.27158631400624
H         4.19734379956022    5.81001302438446    4.20223324089618
C         2.65795197219393    2.95992222950972    5.36833309639314
H         2.72984649837785    2.38457498357804    4.44130485396174
H         2.79663080874266    2.28204519296276    6.21091928429226
C         2.18674811629314    5.46254173980368    6.82643996551624
H         2.11565074131507    6.00833165005703    7.77179975810416
C         2.05031718760621    5.64703585674040    4.35108626525012
H         1.88788054676276    6.32843237826768    3.50963147281322
C         1.25916835017466    3.57917867031033    5.48224624693208
H         0.51892518975309    2.77243044524507    5.46196242887821
C         1.95050766741735    6.42067898736019    5.66250825441702
H         0.96377398649787    6.87732636709009    5.74870885698238
H         2.69551223413134    7.21804279478891    5.68191102825080
C         1.00542786010410    4.53385791394860    4.31868530725850
H         0.00462082405025    4.95918369050138    4.40228656783704
H         1.05910347594355    3.99450600648388    3.36993637113758
C         1.14526172623071    4.34479328756184    6.79944618414469
H         0.14422339206080    4.76756231766636    6.89351676831754
H         1.30088927133996    3.66833868318555    7.64274629609306
C         5.80446485007722    1.86438220665938    6.15652722226908
C         5.40941660087252    2.02079186347940    7.62725608181262
H         4.32787032259904    2.12838640355672    7.71586308559675
H         5.87621935338660    2.91992985663166    8.04292268089985
C         7.32607613328094    1.67778769730331    6.08315145506492
H         7.65594758863418    1.55481629198855    5.04473412448129
H         7.80705099549104    2.56920500407622    6.50942247773221
C         5.12819101898128    0.62307779882761    5.57077257724221
H         4.04436029595757    0.70842146479446    5.61735017017662
H         5.40493582822120    0.47589361297523    4.52430515725541
C         5.84184524501866    0.78612294933404    8.42059176259730
H         5.54499220382102    0.91470569438185    9.46589552030244
C         7.76015437427995    0.44770226384373    6.87629348826428
H         8.84869917705559    0.33685181690079    6.80338062345777
C         5.56274494533024   -0.60968454621301    6.37526024984052
H         5.06954010302669   -1.49101959826675    5.95287483433997
C         7.35719021854602    0.61971589478784    8.33836935471595
H         7.85257573596467    1.49543893322149    8.76540398331358
H         7.66905986291012   -0.25293009574760    8.91371999315284
C         7.07757926182584   -0.78657684767289    6.28950955251268
H         7.37915428537240   -1.67531433562011    6.84531110459919
H         7.38245802334245   -0.92799764733688    5.24910660786535
C         5.15356917620283   -0.44709934729137    7.83797420842457
H         4.06940404016041   -0.34140162617130    7.91397434251898
H         5.44079962042423   -1.33550920457321    8.40214451952185
C         9.43902448237622    8.00304391690349    5.33823417282555
C         8.73614517490087    8.47196229615964    6.61893110399831
H         7.73062210761324    8.03886692885045    6.66687288389288
H         9.28074148034725    8.13289307019465    7.49982967985345
C         8.65911832616083    8.51339801511153    4.11925919549256
H         9.16939976616602    8.23037766917649    3.19585271877907
H         7.65551666218377    8.08072651648704    4.11474977138596
C        10.84990649537406    8.58917718945873    5.28694769889047
H        11.36941951892685    8.26623571157917    4.38058421438897
H        11.43226286059691    8.27235611468284    6.15213752329402
C         8.65750808259002    9.99880173141936    6.63929272738357
H         8.16160387749075   10.31559393377752    7.56144527507729
C         8.56123253134298   10.03938220260495    4.15594204883754
H         7.99011431363812   10.37795346136341    3.28524810606330
C        10.76205596225554   10.12068652123166    5.30818832907007
H        11.77826672094038   10.52740400620555    5.27427399139140
C         7.85724688142923   10.48451673604706    5.43434979343864
H         7.77651419878291   11.57206050073723    5.45291950369019
H         6.84839245321295   10.06947833024090    5.46806957340118
C         9.97111620776352   10.62349303242894    4.10351295318858
H         9.92459471469659   11.71298485360664    4.12140105811346
H        10.46724120437990   10.32726132956524    3.17609515397330
C        10.07138387015812   10.57648884192013    6.59246885572721
H        10.02871991769755   11.66603698352372    6.61973821430870
H        10.63990952328514   10.24434117042839    7.46390622630620
C        10.73960977843260    5.32660139085994    6.31417963835844
C        10.74212626364423    5.89217283687565    7.73707544426916
H        11.03647508333442    6.94171397376593    7.72687296204643
H         9.73716172695249    5.82218614076438    8.16524501889060
C        10.35487444683377    3.84365810321491    6.39841549082660
H         9.36182367869395    3.77378481402179    6.86375531825181
H        10.31921350048548    3.38976162990332    5.40070032542749
C        12.14066880566664    5.44542587251112    5.70971623948894
H        12.17539875592541    5.02837887477340    4.70095401062130
H        12.45235244944913    6.48660863492632    5.64904300624783
C        11.73972018429331    5.12156149488270    8.60555726634586
H        11.73036518502381    5.54564554775883    9.61424041998327
C        11.35396316797991    3.07086442876051    7.25648334961940
H        11.06142230829525    2.01465956110889    7.28746614233448
C        13.13506453279203    4.67761064750942    6.59041264334902
H        14.13383916097815    4.77556577273692    6.15289719344645
C        11.34872594655201    3.64740562948331    8.66978524067879
H        10.35637231925964    3.54374713052257    9.11543535572639
H        12.05460123522477    3.10081436365010    9.29648277617833
C        12.74829086558727    3.20095158463697    6.64678722895430
H        12.76331949161635    2.76905142843012    5.64248508579352
H        13.46923855901669    2.65127863183023    7.25325241518820
C        13.13673602259885    5.25841614576427    8.00291486976150
H        13.86223194409064    4.72624979668246    8.61979284952422
H        13.43187068658870    6.30942857700836    7.97501188088183

