51
CSD_code = TIKWAN | q = 0 | S = 0 | Stoichiometry = C23H22ClO3PPt | MND = 4
C         3.04042580378968   -5.39500980601391    2.14452625791430
H         4.09464531006214   -5.16379366041347    2.06787055373604
C         2.12154967257112   -4.37427047075284    2.37129392034176
C         0.76711960628414   -4.67038409469264    2.48955596760869
H         0.06549444942512   -3.86094974821985    2.67407257630803
C         4.23832939858606   -2.78390232873964    3.37076408330006
C         4.31103883901025   -3.16959628721688    4.71432481558205
C         5.54382273309020   -3.26731673818511    5.33813438459831
H         5.57959852867604   -3.57784168293460    6.37109970930447
C         3.51238874028987   -0.21693696216871   -0.55997929039806
H         3.66247537147521    0.84460253601674   -0.69013594721264
C         3.59197299268056   -1.06968813874680   -1.65073157502577
H         3.80460686020900   -0.67137488960926   -2.63166630969862
C         3.10593595810410   -2.94728135247699   -0.23288259789286
H         2.93339283864941   -4.00635626625770   -0.10999048185302
C         3.22797496086573   -0.72899722107193    0.69029074589338
H         3.14471536067603   -0.07830856475984    1.55377481720606
C         3.03485979040610   -2.09800945168021    0.86256089718257
C         3.04744522092816   -3.46863660016970    5.49616913859893
H         2.45772405240608   -4.24059397283639    4.95502252695984
C         0.13664195790533   -0.86430346482550    1.95663515824133
C         1.24816726628645   -6.99202460769665    2.13828710802028
H         0.91035504116635   -8.01373192360537    2.04710389045764
C         2.59904340827365   -6.70072601005228    2.02769086862994
H         3.31056323343982   -7.49425845942878    1.85163406397628
C         0.33237840385051   -5.97794987089947    2.37013678461829
H        -0.71869657574145   -6.20785356112983    2.45990549518400
C         3.38565975134313   -2.42863699796713   -1.48598566387851
H         3.43581332388156   -3.08919218323957   -2.33901967878928
C         6.70899289576775   -2.98113718281040    4.64714159137408
H         7.66295643617794   -3.06096291984974    5.14594786543356
C         5.41637637315186   -2.48966188579490    2.69090362085664
H         5.36886358386157   -2.18360957783276    1.65557235711576
C        -0.20279186470463    0.59832471512842    1.92806014950807
H        -1.07932739791218    0.74951780590258    2.55918024226291
H        -0.42407250375260    0.91274489940004    0.90922050814504
H         0.60854356888490    1.19302409776076    2.34734377822877
C         1.64385052822574   -2.36787591186476    6.89926916422537
H         0.71144124663380   -2.94089700202455    6.81453461748049
H         1.42972745330297   -1.35512401638893    7.23679451360140
C         6.64371793283100   -2.58897334681097    3.32218945932199
H         7.54701734192758   -2.36065748828250    2.77618436572533
C         2.67939993149591   -3.11581911422502    7.73590141840587
H         3.41946413090876   -2.42601188108007    8.16250982902995
H         2.24678517569198   -3.73157088460472    8.52467228504285
P         2.61379083839058   -2.63334550725228    2.54679172130925
O         3.30367932571467   -3.96758079915938    6.79000788741957
O         2.29423935222837   -2.28527057952674    5.64523215462385
O        -0.07688246442972   -1.64176025129837    1.06820120787311
Cl       -0.56856683497163   -0.60172658231670    4.97724210830103
Pt        1.00515265195519   -1.46300380730353    3.62623693580283

