71
CSD_code = TIKWAO | q = 0 | S = 0 | Stoichiometry = C32H32N2O4Pd | MND = 4
Pd       12.06042147343283    8.36124327158919    0.00045792027234
N        11.15857304027216    6.65272923481875    0.46731917835693
O        12.08435569898312    8.81486620948836    1.98702898883997
O        14.04259769724039    7.91681770771295    6.09314728724180
C        11.41533579622576    5.99339615475073    1.54551020783991
H        11.00983412881675    4.98212705028082    1.64994616377653
C        12.13136173866291    6.50137866523974    2.66822283670055
C        12.48774095808746    5.61759051313697    3.69760752838193
H        12.25781688828400    4.56798027017081    3.57229548683806
C        13.12599039767040    6.02779255061274    4.83915708147409
H        13.39081132875698    5.30370078737852    5.59208746734388
C        13.41309379691994    7.39282635886323    5.00526880109455
C        13.05264760083566    8.29346905103906    4.02474181825144
H        13.26846185758386    9.34139297562307    4.16059613096968
C        12.41658513775700    7.90361784088688    2.82704688069220
C        14.41674560665173    7.05549298662130    7.14055678785576
H        14.88275306256400    7.69111462777331    7.89226557435312
H        15.13905230388153    6.30330744354289    6.80709628961980
H        13.54853649180387    6.55507125926108    7.58110650118294
C        10.36425008469722    6.12744421069047   -0.56029332130606
C        10.63529331687445    4.88448507281502   -1.12177487634069
H        11.46494183951466    4.30382841136672   -0.74348601927358
C         9.88860754213279    4.41983019957877   -2.18848123144899
H        10.12575400469527    3.46110051086375   -2.62679234449215
C         8.85171031788454    5.17982772808291   -2.70828441427323
C         8.05595942365343    4.71249434511573   -3.88866115159262
H         6.98872746646889    4.77790925434402   -3.68274571597577
H         8.30168399363123    3.68466303508642   -4.14330022500203
H         8.26750585445367    5.34256645299738   -4.75250292058495
C         8.56832488189515    6.40879423375338   -2.12139707573958
H         7.75592037830952    7.00160031205088   -2.51831345489481
C         9.29997724034698    6.90148672404813   -1.05628866221917
C         8.95895414855750    8.22367906894798   -0.42825625597646
H         9.77853581265840    8.95711366529287   -0.57955949632298
H         8.80757749420601    8.10830915551253    0.64839063511667
H         8.05206522204849    8.63009283038001   -0.87012648813437
N        12.95701432003851   10.07234358689332   -0.46682787397851
O        12.03156575017831    7.90992131929852   -1.98666005018701
O        10.07394175209598    8.80761674025290   -6.09316479067704
C        12.69952038049541   10.73167331761256   -1.54486607572635
H        13.10447863056876   11.74317044199410   -1.64929519351649
C        11.98343412861959   10.22355415637824   -2.66748024984920
C        11.62695957122368   11.10733301024990   -3.69686506643362
H        11.85657266235746   12.15698825173677   -3.57143976061445
C        10.98924206711815   10.69695850087769   -4.83865299407571
H        10.72440063193664   11.42098713010048   -5.59161709733369
C        10.70285078839938    9.33178444293572   -5.00503292347941
C        11.06324525240510    8.43121695550626   -4.02439358639536
H        10.84806033363805    7.38318468615974   -4.16045624888069
C        11.69857150452952    8.82121043576776   -2.82637373912593
C         9.70128561864039    9.66870052347653   -7.14137683339905
H         9.23606697151847    9.03275830523582   -7.89339280448723
H         8.97850885002425   10.42123910869640   -6.80916391918060
H        10.57032377192331   10.16887877728824   -7.58101954658370
C        13.75143498026910   10.59781890696771    0.56051787880935
C        13.48052318781511   11.84068426859232    1.12221377898385
H        12.65073315506997   12.42136315308939    0.74428083224906
C        14.22765055699008   12.30521876524736    2.18865195204766
H        13.99074731007470   13.26395967365192    2.62706956488442
C        15.26470347652967   11.54512622717577    2.70802830292886
C        16.06110504051367   12.01251724630965    3.88793821728976
H        17.12822472155990   11.94688311796943    3.68148444936155
H        15.81568157230248   13.04044114011652    4.14249332518393
H        15.84987873041249   11.38264804128986    4.75201007384369
C        15.54769190543644   10.31607357882152    2.12111514862999
H        16.36018801275271    9.72316977938005    2.51772036450131
C        14.81563258931975    9.82358338745170    1.05621171561578
C        15.15542938919993    8.50113117353251    0.42810625608403
H        14.33499984213349    7.76858737348179    0.57959681911596
H        15.30654483747734    8.61636367461861   -0.64857760024944
H        16.06228367997307    8.09417063212753    0.86963176202860

