66
CSD_code = TIKWER | q = 0 | S = 0 | Stoichiometry = C30H30NO3PPt | MND = 4
Pt        7.19426346311073    0.63296449166915    2.97714150124988
N         5.91380856744506    2.11621510397435    1.56293707402498
H         5.70009376874075    1.32803514131374    0.94067696435083
O         5.90483106157700    3.55529393691246   -0.32862420810052
H         5.79417236146207    2.79625002176396   -0.91276307207329
O         5.78982948734246   -0.72364781398617    1.06687544425297
O         9.43407623972667   -0.99908808399612    3.63644643488430
P         8.43897623162526    2.61467964704187    3.25840908963981
C         7.74379517172141    4.24667371994047    2.80760104543352
C         8.01363482457309    5.38770457813323    3.55632940794006
H         8.65924211863796    5.31929894605783    4.42009982357811
C         7.47457610033408    6.61264506347097    3.20632616634638
H         7.70110755897880    7.48664112477671    3.79923090934857
C         6.65326871194182    6.71230106351732    2.09822678757950
H         6.22548933913377    7.66348691720039    1.81960083455324
C         6.38239432946050    5.58630028132062    1.34016747494925
H         5.75125996894417    5.65207407069370    0.46860775787526
C         6.91838199878485    4.35407955373326    1.67990298188879
C         6.62127986039111    3.14391230709892    0.81460226579549
H         7.58751878342224    2.70317122494550    0.50090952793520
C         4.66141275516398    2.55155354653841    2.19176094145475
H         4.85632036854318    3.49063814595570    2.72050982529631
H         3.87493616395537    2.73218420703362    1.44719914159746
C         4.24789292025927    1.48313190564892    3.16677580423100
C         3.24096667491860    0.57935005789188    2.86940114895325
H         2.70049787081558    0.66677336102086    1.93790601481609
C         2.92389765678295   -0.43560971333477    3.75802925463887
H         2.13923300056591   -1.13613524673001    3.51440338828370
C         3.61071138925498   -0.55000707028845    4.95372906017251
H         3.35551694709580   -1.33570459407767    5.65006118470946
C         4.61768687812238    0.34970456351226    5.26423625995846
H         5.13016605198332    0.27968185478187    6.21218358982873
C         4.95744835332882    1.35165188447412    4.36506359403251
H         5.67208752621405    2.11932778936813    4.65077404799760
C         9.77956709885775    2.53143699573941    2.02741318167786
C        10.64270016870285    3.60347646688903    1.81918801701140
H        10.53339408833423    4.50426070384739    2.40832584853886
C        11.63683544485105    3.50879591812747    0.86384553533104
H        12.30983843281614    4.33874579421775    0.70399525265842
C        11.77086330399601    2.35170772952228    0.11103835670091
H        12.55014851331506    2.28336858798431   -0.63382798467553
C        10.90842642442589    1.28668474368650    0.31144623732226
H        11.01283068029060    0.38604618427245   -0.27479281812622
C         9.91085914597514    1.37521697058755    1.26637885096564
H         9.22843122725890    0.54423280682108    1.43745442316977
C         9.32198680343546    2.90645557635640    4.82030420279097
C         8.57914173781880    3.29441269317269    5.93621434559614
H         7.52728622223473    3.52649269122438    5.82092835709063
C         9.17680652775277    3.39035681317667    7.17746075791695
H         8.59608074583680    3.70264641547603    8.03338693564720
C        10.51873250128960    3.07452435635833    7.32481895982237
H        10.98582482948265    3.14404146347300    8.29590238997201
C        11.25397303047653    2.65693601830402    6.22828455205360
H        12.29526858672494    2.39494412847403    6.34453530802243
C        10.66064395635627    2.56546385418255    4.98161621024875
H        11.23427623300910    2.22315454744848    4.13264230670645
C         6.29032848967842   -0.95429710512481    2.16088003110970
C         6.17276404404009   -2.34165051207347    2.75688117576201
H         5.61399370020585   -2.99845017221546    2.08920063504552
H         5.66423057218141   -2.27553040861760    3.71754152944850
H         7.16895319202173   -2.74642732414632    2.92719247045042
C         8.42778258238322   -0.49052843050697    4.06832193043731
C         8.08053718717141   -0.56749770029569    5.55002484958819
H         8.91308764648304   -1.00019051123046    6.10393074169888
H         7.19936782373932   -1.19359982031471    5.67519385314586
H         7.86046455447246    0.42653853789951    5.93873608960053

