69
CSD_code = TILBUO | q = 0 | S = 0 | Stoichiometry = C26H37CoO2P2Si | MND = 5
Co        9.85939790498699    3.06394833396791   12.61309084250362
P        11.70320090779941    4.26889457160962   13.40736267542933
P         8.79445382674571    3.90100274444586   10.80553802617572
Si        8.66873354832554    4.64633710131519   13.69851207878568
H         7.38250708985391    4.49472180988229   14.44807177198279
O         8.81085604998870    1.32635423135733   14.71035400340411
O        11.09217466617815    1.04399083781825   10.93644888317659
C         9.22072350728988    2.01450355686641   13.88243824071635
C        10.65273049177539    1.85096463985303   11.63181236721486
C         9.81289347531508    5.41954548911068   15.00657585561088
C         9.33308000160184    6.13860254156552   16.08754231461688
H         8.27392106982937    6.33787597389882   16.15816056884409
C        10.18930527630994    6.58458445983579   17.07864649175899
H         9.80567433825094    7.14500091984955   17.91921606097260
C        11.54045572977583    6.29005165337652   17.00167671375733
H        12.21116772466461    6.61414694011112   17.78489750994406
C        12.03700740849507    5.57481718593075   15.92572427187532
H        13.09085993990148    5.33939706882723   15.89963667657079
C        11.17815875916505    5.14816899480916   14.91873923462557
C         8.18808073746416    5.98316706408908   12.42016638533222
C         7.76209476336575    7.25532083755581   12.75979606742685
H         7.74664597549388    7.54614507400721   13.79978835068502
C         7.36971080660459    8.15184986333090   11.78040109614790
H         7.05177808405755    9.14839863296795   12.05131900998510
C         7.37614080096001    7.76612462580753   10.45025652298168
H         7.05633496529886    8.45806719914202    9.68406462926367
C         7.78948009301656    6.49318456049862   10.09561753658465
H         7.77313183514986    6.20509095508560    9.05649561010391
C         8.21086105484890    5.60528121619868   11.07646422604227
C        13.12171925395807    3.22355987839581   14.01903977658838
H        13.80373516062468    3.86738499270168   14.58488367540654
C        12.56659465157547    2.15549215186615   14.95438388972368
H        11.99543171735015    2.61032505628695   15.76353505397325
H        13.37527228200639    1.56836178801177   15.38735005812089
H        11.90763204415462    1.48137585382544   14.40793369585107
C        13.87915586837292    2.59472662516742   12.85512936420486
H        13.20724780737194    1.99524838255998   12.24491436234004
H        14.66664304513238    1.94227610799615   13.23037196392912
H        14.33721564322784    3.35193026804904   12.22140294772360
C        12.58646184483197    5.65006310495800   12.49059189966548
H        12.92556839352229    5.18904108841072   11.55249966679072
C        13.78973281766809    6.27446372535401   13.18763009739712
H        13.49162452254923    6.75036001326752   14.11877862904008
H        14.21174422258952    7.04298616163927   12.54023746588710
H        14.57174546452424    5.54740119239226   13.39146472088428
C        11.55708317971596    6.72815466708068   12.16612373860544
H        10.68234873037603    6.29724894577700   11.68254950533095
H        11.98308396491348    7.47765242474616   11.50047852751431
H        11.22729309228246    7.22492319741710   13.07784573265105
C         7.17132912139651    3.05721151002210   10.44585929407585
H         6.73925569325797    3.57079749245286    9.57676584839434
C         6.21463018268782    3.20400957465313   11.62169330279462
H         6.61704419074492    2.70376271480116   12.50079431786278
H         5.25475027764650    2.75058198040862   11.37820829963219
H         6.04941561374754    4.25156128347662   11.86680359063110
C         7.40801198734809    1.58278338644861   10.13832434555389
H         8.05971445632384    1.44548661676580    9.27783950496699
H         6.46221355957100    1.08258334915367    9.93446468543129
H         7.87148126317485    1.09990135928229   10.99913480875711
C         9.64635903621168    3.80928523423937    9.13484075457121
H        10.05123476401588    2.78585425790098    9.14556953390284
C         8.84198662655145    3.96454437232881    7.84614098266955
H         7.97848399293986    3.30582956921078    7.81453383910425
H         9.48652269883452    3.70545094942148    7.00588079054178
H         8.50864002195355    4.98699756831906    7.69398536859780
C        10.82733345292525    4.77467845121363    9.15658772852700
H        10.48346149710702    5.80808851023985    9.17002689535969
H        11.45697592331721    4.63146027272152    8.27953524154955
H        11.43026110089450    4.59621683785562   10.04585207300574

