43
CSD_code = TILBAU | q = 0 | S = 0 | Stoichiometry = C19H20BrClIrN | MND = 8
Ir        6.94590664911376    5.04183221563242    2.87785787789117
Br        5.18881038143323    3.33717075230744    2.45067969542459
Cl        7.74933345797920    4.64025057743909    0.50379088183989
N         5.72539260816937    6.51431159136689    2.10036329491967
C         5.81018488238044    6.96768504395772    0.85280539883928
H         6.55188482595642    6.49770880883017    0.21908725216224
C         4.98805304985111    7.96028527113586    0.35749385094880
H         5.09803631927227    8.28295719626528   -0.66460441922068
C         4.03024071399480    8.51154876496640    1.19502058003008
H         3.36437205577703    9.28468984876236    0.84313336389606
C         3.94256828531716    8.04636587600684    2.49017302516741
H         3.20560862525727    8.45265288014382    3.16220246716755
C         4.80232698155708    7.03946025251231    2.93226962093496
C         4.78087496587183    6.46357777590396    4.26447403292469
C         5.70901144461001    5.43878485696211    4.51813120391518
C         5.64591730179904    4.81497013660650    5.75453890759063
H         6.29179160339481    3.99052700365538    6.00034388076801
C         4.73884919501832    5.21310299751525    6.72384621326160
H         4.72287510674674    4.70191389255569    7.67523627268187
C         3.85652860742757    6.25052084081504    6.47754440687012
H         3.15278075586345    6.56266074274620    7.23408982291966
C         3.87198908885334    6.86653060766620    5.24601612740732
H         3.16856457293767    7.65867154295081    5.04231672826510
C         8.81751878650729    6.32149699281911    2.82505182612219
H         8.64412469369949    7.02351521541835    2.01636916631652
C         8.16563283740179    6.53963656211644    4.02327791481213
H         7.57038180129951    7.44515267759894    4.12295132348327
C         8.62548845828605    5.97244623666675    5.34561711951701
H         7.85247439224914    6.17846326072945    6.08724777784091
H         9.52538888342526    6.51366051673024    5.65838163257018
C         8.90902722216576    4.45857961389139    5.32148313634839
H         9.97099514508492    4.28067660922109    5.14099451522084
H         8.68129687243395    4.04949911157027    6.30697342609852
C         8.12370496023437    3.68899974474732    4.27612761927269
H         7.42566359377856    2.94772745146234    4.65487284675614
C         8.61425385735311    3.47489754918743    3.00679029645842
H         8.24448514534004    2.61704748293492    2.45073304897422
C         9.92210654468555    4.02335882846782    2.50587306832875
H         9.99027805158102    3.81203328663225    1.44023776619564
H        10.72969703410097    3.47437842560595    3.00423065851159
C        10.10383414487006    5.53856655896423    2.72113089788318
H        10.68426725701461    5.72337873976555    3.62877087500615
H        10.67477883990534    5.93340565876691    1.88017459767875

