83
CSD_code = TILFAY | q = 0 | S = 0 | Stoichiometry = C38H36N2O6Zn | MND = 6
Zn       11.56022584183376    8.40858729245516   10.69985930940173
C         7.56040013081063    7.19642094788715    9.90133967649533
H         7.37909321440079    7.18995884085288   10.97268682842967
H         7.26768997374443    6.24128204632754    9.47066591874986
H         6.95412474598816    7.97194950042745    9.43920446725163
C         9.02862866811568    7.46763822868890    9.64427367911140
C         9.47949031479322    7.43279286655304    8.31658545031814
C        10.81933919529033    7.69414719834871    7.99514481225125
C        11.21294788067430    7.67249148151935    6.53173645353273
H        12.27124722252663    7.90184259834473    6.44265713279930
H        10.63112502911122    8.40449957429680    5.97600434377276
H        11.01611663986692    6.69310887034897    6.10190255357966
O         9.75545602474121    7.68159176076679   10.64893763004631
O        11.72955070159659    7.94609646683106    8.82651782694163
C         8.51229604960895    7.15651638984580    7.22597648069509
C         7.74423206666324    8.18485033865097    6.68558370142178
H         7.86243166473406    9.18721447281738    7.07223336588350
C         6.84547970003311    7.93844196901182    5.66865819107522
H         6.25316393628053    8.74026031158923    5.25169513692630
C         6.69787022876327    6.64453650958977    5.16383481908715
C         7.46437131706548    5.60880074999384    5.70210476257432
H         7.34841174183917    4.60697697646384    5.31412057454380
C         8.35740248007528    5.86798013531086    6.72128034377441
H         8.94746099061089    5.06327958624140    7.13766458415569
C         5.78668276579806    6.38721760648586    4.11914708616641
C         5.00953510506481    6.16851719183908    3.22017282687214
C         4.10414840814017    5.91366591977428    2.17019698043230
C         3.15041587593553    6.86437062633199    1.79493349470059
H         3.09230380976000    7.81215240962445    2.30815436324482
C         2.28977166947930    6.55667344052306    0.75712096472113
H         1.53513786744236    7.26268362697064    0.43430957138653
N         2.31729723218704    5.41122770175082    0.09453190234061
C         3.22126172886177    4.51222897038438    0.45010624051282
H         3.20930399996670    3.59074234917168   -0.11811631722537
C         4.13359125706755    4.70304215206767    1.47172056594930
H         4.85455513961444    3.94168913406637    1.72791925084498
C        10.92828574924646   11.52484004980030   10.81546219766610
H        10.09727216508375   11.33829208680272   11.49160679036006
H        10.75023525111243   12.45224106631519   10.26121607878813
H        11.84479949930038   11.61942273497808   11.40267904936573
H        11.76433938808713   10.52883230745264    9.36248437318613
O        10.98724021371556   10.42520412997019    9.92588759452098
C        15.55930638245149    9.62343026635004   11.49747644936036
H        15.74078824643633    9.62845449458345   10.42614997336199
H        15.85079511305128   10.57960185344730   11.92669764686227
H        16.16645750812023    8.84938527123730   11.96093664192117
C        14.09130551817107    9.35094105214369   11.75464810814695
C        13.63999482471384    9.38787757514906   13.08212840450980
C        12.30005823177724    9.12708908903602   13.40370056573186
C        11.90578887753137    9.15277264661618   14.86685995187778
H        10.84756338499189    8.92313392596416   14.95609321933516
H        12.48772410125009    8.42273053149560   15.42504190679778
H        12.10185521698595   10.13354854419825   15.29385999289404
O        13.36506854908232    9.13447045985834   10.75012093270266
O        11.39019517165473    8.87279480728881   12.57267408889605
C        14.60701888580872    9.66667705501717   14.17224033387719
C        15.37651386572821    8.63994199793019   14.71364148272188
H        15.25925468312870    7.63691267182130   14.32842934971869
C        16.27562196455680    8.88876052051058   15.72966496082521
H        16.86911465849385    8.08818243753490   16.14734595935433
C        16.42212992021217   10.18355666014169   16.23254359183808
C        15.65416944560256   11.21768214238062   15.69326171479819
H        15.76923412724763   12.22016819707155   16.07980393962271
C        14.76079425579324   10.95609432825736   14.67501124775245
H        14.16961337718832   11.75956277308297   14.25782143655445
C        17.33331300827923   10.44335511602998   17.27661653156854
C        18.10965391515450   10.66417821698736   18.17577958079715
C        19.01476664560391   10.92113516233145   19.22546091227562
C        19.96838359407986    9.97115603768708   19.60287259292994
H        20.02674379422343    9.02244776026909   19.09141690481836
C        20.82852855780209   10.28073146731587   20.64054641239110
H        21.58289555887840    9.57525758360846   20.96513064947738
N        20.80059418021883   11.42736169507635   21.30109173069855
C        19.89675518744735   12.32566159903158   20.94346048327116
H        19.90833733683796   13.24810878451201   21.51011141203035
C        18.98492713475607   12.13299034299055   19.92176706110287
H        18.26402947660870   12.89381907327308   19.66385825973768
C        12.19926625097427    5.29219942007618   10.58974881624940
H        13.03692245752359    5.47703292508396    9.92134734156706
H        12.37148917898084    4.36557289308224   11.14709568938591
H        11.28840080678522    5.19713821473423    9.99386227532421
H        11.35165999481866    6.28953447283452   12.03518670206117
O        12.13253372614919    6.39324131632082   11.47699368818037

