63
CSD_code = TILLOS | q = 0 | S = 0 | Stoichiometry = C27H29ClF3IrN2 | MND = 8
Ir        9.26351729744982   10.17222561987485    8.49392486245182
Cl        7.43516494926690    8.78226245965885    7.99736454046022
F        12.07382354549883    5.12583351117572    8.74786919679593
F        11.11195248702632    3.59868118744352    9.91878851055612
F        12.84927742358239    4.60315772505551   10.68220120796376
N         9.29557372733039    9.16695678845268   10.27791511942973
N         8.45667793803784    8.72332389312167   12.29279696147073
C         8.01566955912440   11.27024396396477    9.65425796463464
C         7.30996599405423   12.39136258171700    9.23067900121932
H         7.35772762748866   12.69537380247616    8.19675083510546
C         6.53009061472491   13.12522137383348   10.10655819324943
H         5.99731243092597   13.99551914425621    9.75136015529472
C         6.43293116532834   12.75588310237598   11.44099889164931
H         5.84142943199585   13.34622491333012   12.12494311357932
C         7.07793197863371   11.62365305972676   11.89050267801381
H         6.99046248602708   11.34950626640109   12.92942934081355
C         7.84391699143349   10.86293000687578   11.00407069216833
C         8.51495460784315    9.61800579550699   11.26586556021832
C         9.74767830683871    7.93564389936383   10.65232706918220
C        10.53527696673862    7.01211519216883    9.98076295721177
H        10.87195664929574    7.19790336840541    8.97637337400387
C        10.83433378892842    5.83765148731703   10.64558337123263
C        10.36059441034745    5.56954060336967   11.93615341460775
H        10.62936988584104    4.63694988794591   12.40726533699697
C         9.55088210033296    6.46949727421371   12.59646189731578
H         9.17687930458325    6.24722517832597   13.58300526181672
C         9.24051784585460    7.65398083629296   11.94206130149352
C        11.70404030415550    4.80343728151403    9.99476981283190
C         7.70750517796609    8.81415043100229   13.51902291959971
H         7.47633870676374    7.79715536875295   13.84615239580653
H         6.76301455593662    9.32333958038103   13.31694637848523
C         8.49514630433208    9.54290870577765   14.61221583576616
H         8.77725552361155   10.53452911834496   14.25240325530027
H         9.41505222042884    8.99048819319111   14.81521397044514
C         7.67484207468471    9.66809680491222   15.88902406064990
H         6.76326416014629   10.23245732515373   15.70616518688642
H         8.24693711082397   10.18133197588678   16.65705301499777
H         7.39873275667376    8.68596304813631   16.26562704859209
C        11.21430637518814   11.18001932752410    8.12087917765468
C        10.21918076640668   11.82019085630197    7.31752520791143
C         9.68333609513870   10.82741246760270    6.44628801374444
C        10.49969390549277    9.62788105186963    6.57854059585104
C        11.44044729433148    9.85226002910570    7.58100357240154
C        12.14808934103134   11.88123808677673    9.05651039198415
H        11.64854900926856   12.70958156400564    9.55373452441694
H        13.00114993159783   12.27955594639160    8.50270363438380
H        12.52777005782695   11.19997325246719    9.81512327047174
C         9.94834637962764   13.29226221855593    7.30307340594130
H         9.78669600599446   13.68036998796872    8.30697463654332
H         9.07812244988693   13.52663690556381    6.69632041049892
H        10.80930572794498   13.80815556426053    6.87415379679856
C         8.71692831646976   11.03830391964866    5.32285747250482
H         8.11407801626255   11.92899935940499    5.48192221532365
H         8.04677338317506   10.18558204335735    5.23481720001758
H         9.25760343773039   11.14825110909694    4.38069947291975
C        10.34756541099740    8.42937564574746    5.70091395180236
H        10.55690754699444    8.69455976814431    4.66347290460870
H         9.32665197861975    8.05123338198635    5.75207359272500
H        11.02368000381544    7.63059526598977    5.99687175313862
C        12.60131773787336    8.99486029625330    7.97127439165689
H        12.52969671766672    7.99845128869099    7.54119713869376
H        12.68478752721763    8.90274605286559    9.05382139500525
H        13.52381817339580    9.45197385471769    7.60698318471329

