21
CSD_code = TILLEF | q = 1 | S = 0 | Stoichiometry = C9H6MnO5(1+) | MND = 9
Mn        3.16043317678638    2.27562461262374    6.61932983847988
O         1.50141223895570    4.88297090915816    8.17879445237256
O         6.27402949112580    2.17516975703224    8.08727345821395
O         0.99935479937244    3.08048292746933    4.78112948872631
O         1.90599010781111   -0.33651587728693    7.14236178772374
O         4.89182913674031    1.20205840191681    4.48694139561623
C         2.59406010454867    4.14706696537653    7.99850889895804
C         2.74565352946516    2.98027484634629    8.78538416840894
C         3.95659132606425    2.26997680808878    8.80163439730006
C         5.04853535049235    2.68790293490441    8.00890679803265
C         4.84572407460064    3.77501679113853    7.11455467978549
C         3.64728357278202    4.49194096365296    7.11056600206768
C         1.83375160937873    2.73480212839254    5.46888041080976
C         2.38478831895654    0.66290144014602    6.89807603255804
C         4.19437760664017    1.59353885954440    5.29042333199498
H         1.44995177642800    5.66333965933337    7.60795902657467
H         6.35499180326560    1.43694709784391    8.70849294868728
H         1.95722239609896    2.73759937342749    9.48815991857970
H         4.09038044288781    1.46953595877723    9.52250974548444
H         5.69488716304642    4.11852450896627    6.53473782241991
H         3.57295197455291    5.39694093314794    6.51537539720565

