63
CSD_code = TILLAC | q = 1 | S = 0 | Stoichiometry = C30H26AgN6(1+) | MND = 4
Ag        7.60489429803751    0.87160239793116   19.23858507346194
C        10.10824239424863   -1.06207301049084   18.79354228719040
C         8.86721320032358   -1.34401547766461   18.22229334277252
H         8.63117602928513   -0.94975241324647   17.24117684336084
C         8.01747932244753   -2.26655262010646   18.82199916694196
H         7.08521455775995   -2.52990892040986   18.34492545109032
C         8.38737240761756   -2.88378236162152   20.00474906934220
H         7.73290643799869   -3.60871770488018   20.46450053576934
C         9.60755368489197   -2.58525921566214   20.58791778912818
H         9.90244474207786   -3.07384639361627   21.50399448137884
C        10.46345179202353   -1.67871471844559   19.98591753292033
H        11.42296573701627   -1.46657263453529   20.43513288855894
C        11.05268739516283   -0.09447927433287   18.12251903290696
H        12.08978252688209   -0.41009703321233   18.25550995926980
H        10.83384759273956   -0.04475597777123   17.04954528933986
C        11.88860964290162    2.08143851664888   19.04897332639692
H        12.92659853055622    1.83319170753665   18.95637072941207
C        11.28068071596576    3.22664713309957   19.50806177252089
H        11.75947970061494    4.10404196506678   19.88896897082953
C         9.90208143013760    2.96918379088314   19.40198003887780
C         8.77230942982837    3.79900056998145   19.79047722440196
C         8.89601180915601    5.18247531725444   19.91718763299638
H         9.83499418103411    5.66418400619502   19.69653283329678
C         7.79708069603722    5.91864385516229   20.31918476017659
H         7.86497197045606    6.99043086660455   20.42843385808995
C         6.60950616330983    5.25271240683763   20.58379107277296
H         5.73235622133118    5.78660520745001   20.91179558829988
C         6.57571196415096    3.87714187267699   20.42255022623392
H         5.67337913329881    3.31598370749412   20.62610624139749
C         5.33964891041852    1.82304713981983   17.16081150093604
C         4.84609475264833    3.07552257110647   17.50145916496407
H         3.81723140363098    3.18039735581962   17.81433016754066
C         5.65632778404579    4.19470813457503   17.41545305524992
H         5.25663455644998    5.16613548110735   17.66336218130094
C         6.96826545939325    4.07310767204849   16.98884410258163
H         7.58986469593685    4.95108223423580   16.89969093154835
C         7.47456620787711    2.82773632330495   16.65847096286452
H         8.48483133738012    2.73746262337876   16.28814098650634
C         6.66915493206897    1.69946868399134   16.75834315501392
H         7.02836504969568    0.74483580411635   16.39338675342971
C         4.44718412609985    0.60730015835701   17.22582464275668
H         3.42914320703922    0.85744404169977   16.91951701935090
H         4.83405632592460   -0.17393552203729   16.56145820096775
C         3.30637689731849   -0.29078520870600   19.27102555584803
H         2.31644562394808   -0.22284471379062   18.86725064439191
C         3.74402510503766   -0.74316679486874   20.49396877980951
H         3.14352153912276   -1.10516892231205   21.30175221119147
C         5.14106727157209   -0.58545291283980   20.45668016378400
C         6.12928809057766   -0.84962782813453   21.49101001006711
C         5.87073404569583   -1.74260596334923   22.53078548196526
H         4.93505771910882   -2.27719734059921   22.56464934778519
C         6.83414839206330   -1.93427926870760   23.50357243464854
H         6.66007163054606   -2.61765378350955   24.32085931758177
C         8.02433398654467   -1.22811880315653   23.41074859938648
H         8.79697089875155   -1.33821060195865   24.15434776883425
C         8.19810742170528   -0.36803626453400   22.33865184102234
H         9.10660560006971    0.20955190230547   22.23166602568439
N        10.91340327335471    1.22700448722354   18.69191782775959
N         9.71372355351397    1.75036955744187   18.89374801318983
N         7.62168077475533    3.16259607844949   20.03796588441461
N         4.39152998708804    0.09081409883061   18.57449502449759
N         5.50246290259768   -0.08571795736857   19.27379505495905
N         7.28287283082541   -0.17783802679586   21.40109416902371

