63
CSD_code = TILMAF | q = 0 | S = 0 | Stoichiometry = C27H32ClIrN2 | MND = 8
Ir        7.95260440923338    9.83888030866434    0.07123069041782
Cl        6.10608429222956    9.69071075120066   -1.37354052128138
N         7.68488658085252    7.84709245834606    0.37341818402213
N         6.73822495823889    6.09701820762742    1.36618118883115
C         6.68488690063581    9.78144487279074    1.65455424474219
C         6.11180397008175   10.89574169101122    2.25522075574741
H         6.27736450271802   11.87590136480785    1.83547597913425
C         5.31278500444635   10.77712940457664    3.37953092526813
H         4.88531052433896   11.66112923078423    3.83080377435149
C         5.05939646267070    9.53066815267791    3.93151292333616
H         4.44750309497942    9.44360998781692    4.81731886605771
C         5.57248751487749    8.39572255182674    3.33760075411415
H         5.35155650722199    7.43446801761101    3.77319418619207
C         6.36551304061553    8.50800584165122    2.19520554688486
C         6.91361610981202    7.44608632574454    1.38869754748342
C         7.99936060056002    6.73924127719201   -0.36323286924942
C         8.70854672539967    6.60190747073084   -1.55038096364395
H         9.09424417336573    7.47336287726453   -2.05175748294742
C         8.86252799605508    5.33628313567625   -2.08099733722883
C         8.30866930275239    4.22800190570770   -1.42376817926743
H         8.44686897291333    3.24926240701275   -1.85934926852880
C         7.58106777527375    4.34637595235608   -0.25874585231615
H         7.15074851780523    3.47533795874650    0.21068221428937
C         7.42081682177102    5.61999568490276    0.26924959898566
C         9.61248508191026    5.12647195251492   -3.36207196612923
H         9.94382330468235    6.07424948781489   -3.77722647346413
H         8.97879286592690    4.62992966940839   -4.09525898999914
H        10.48472622569708    4.49523189313176   -3.19409076471077
C         5.99964631888579    5.28002361996493    2.29287710912781
H         5.76839538744416    4.33716903719645    1.79178827785184
H         5.05565995495365    5.77845248747560    2.52625922525232
C         6.79613922525069    5.00172403026787    3.57327775673545
H         7.11903309710644    5.95010306082657    4.00674992662179
H         6.13709705554994    4.50709614953214    4.28914325407906
C         8.01548649492860    4.12687224597045    3.30998417075823
H         7.71632910178549    3.15756729336246    2.91726316495801
H         8.56863384625991    3.96484770043019    4.23161839481170
H         8.68061501290610    4.59943970987370    2.59091260679347
C        10.22878440669674    9.96629671815437   -0.58878040944485
C         9.97308777245016   10.47027570684381    0.74571856885738
C         9.16414368425445   11.64611429550698    0.62432398815224
C         8.75516162358614   11.73389840083510   -0.73457034837238
C         9.46853355427186   10.71494603083605   -1.48658881293051
C        11.24054497593147    8.90536678432417   -0.88454769729112
H        11.26722481999210    8.66570704889810   -1.94484569705088
H        11.03393431839733    7.98971617209251   -0.33071876404899
H        12.23170669461432    9.25672316692076   -0.59107386542274
C        10.76269970889687   10.08801009519586    1.95887511255340
H        10.98973036103673    9.02389673224162    1.95753447485854
H        10.21337693539029   10.32273613114207    2.86794313162976
H        11.70728747158406   10.63665723818309    1.98022769806646
C         8.96416935437012   12.66392709974203    1.70333514589111
H         9.88836893798959   13.22971789504088    1.83762818753766
H         8.71320448482275   12.19481641201279    2.65268949292515
H         8.17493432833756   13.36452331126144    1.44359856771077
C         8.00281952383569   12.85273567697182   -1.38437817954740
H         8.69621320915424   13.51889268065144   -1.90220089217151
H         7.44774037853909   13.43326591366328   -0.65159255219960
H         7.29606537674402   12.46091136838525   -2.11361059968041
C         9.41579992828791   10.60843198784502   -2.97636255333445
H         8.38855634641605   10.45825008119756   -3.30885703440848
H        10.01885258407497    9.77789018229469   -3.33755892791752
H         9.78632148819195   11.52743669524564   -3.43351863242953

