102
CSD_code = TILNEJ | q = 0 | S = 0 | Stoichiometry = C56H44HgO | MND = 3
Hg       12.66850991488552    3.94118798831597   13.77598654321659
C        14.11596446155416    2.27213057179809   14.34818304441585
C        14.27311258520940    1.87720788537340   15.68163036580289
C        15.22602392979984    0.92422410970081   16.03413805049545
H        15.31700887505563    0.62074402545267   17.06832563802850
C        16.03671626879819    0.35900022810394   15.06705385000879
H        16.77093379496290   -0.38441734007060   15.34327110330795
C        15.90513586343378    0.74472400071504   13.74584875886135
H        16.53048889324175    0.30234123392658   12.98222494413281
C        14.95137850614706    1.69339372042895   13.38541876299648
C        13.39843376367519    2.47136433193774   16.71543215357962
C        12.03719545706627    2.27447532219503   16.64222938395454
H        11.62515087303700    1.65668279161786   15.85265563026382
C        11.17401455930386    2.80440128286736   17.61193533051652
H        10.11378906374827    2.61583003920054   17.53467859122402
C        11.67155999620621    3.54973287479883   18.64281394430349
H        11.01120298715248    3.96376104995148   19.39163779474097
C        13.05634713258018    3.79705518003733   18.74562125746627
C        13.58750726841462    4.58348888618589   19.78984581109387
H        12.90694744055573    4.99373320147717   20.52313162271734
C        14.92915857190711    4.82733839053438   19.87324052496991
H        15.32774655253458    5.43214747044965   20.67506557580443
C        15.79977234934327    4.29615931221753   18.90978146854377
H        16.85823220077723    4.50267455950541   18.98117423651007
C        15.31658077880520    3.52745513157756   17.88760293960328
H        15.99234848701713    3.12814997549288   17.14603785248473
C        13.93780596916184    3.24973504343197   17.77578803312241
C        14.78752405545196    2.07504695884921   11.96575095175948
C        13.59057282310237    1.81205699766191   11.33635135339597
H        12.80592347077612    1.30034900268781   11.88087239884148
C        13.39438213583624    2.13222239515672    9.98577091392710
H        12.44574657232713    1.90488276568356    9.52050643571116
C        14.39811497104215    2.71223726959945    9.26314199674866
H        14.25853931288986    2.95412538001715    8.21897453762618
C        15.63655703249371    3.00994242227877    9.86876087479674
C        16.68207252324447    3.62243379539991    9.14456115356356
H        16.52329983287703    3.84541782449970    8.09841428602068
C        17.86524070841913    3.93711414107013    9.75102980014412
H        18.65908544215659    4.40832938172025    9.18971038640249
C        18.05195717206833    3.65978050726015   11.11376636955874
H        18.98592474585933    3.92878121104984   11.58545518180639
C        17.06391780652461    3.05669850262355   11.84022188028727
H        17.20907212321947    2.85160631354846   12.89010533804329
C        15.83666670778016    2.70179820251486   11.24092551729149
C        11.06540592170735    5.34942998433039   12.96599609627796
C        11.40479428216829    6.56480514401305   12.36073266964890
C        10.41639264398410    7.46111443373685   11.96045466390914
H        10.70147440756297    8.38585963299253   11.47732123983055
C         9.08172077073346    7.16232150680513   12.16366617920381
H         8.31722715164918    7.85731497509968   11.84660959942291
C         8.72642059704270    5.97171244970570   12.77041440468969
H         7.68441064940542    5.72742953732927   12.92588812237073
C         9.70899024840160    5.06851688451351   13.16836763247730
C        12.83115681369393    6.87933736053801   12.12985716185116
C        13.57561688016082    6.06613552329725   11.30421858332982
H        13.10130622953504    5.22993740688186   10.80346894936210
C        14.92651402536726    6.33729302073048   11.04407312991550
H        15.47634896049482    5.68961771820905   10.37785860072912
C        15.53770710800424    7.41035242195528   11.62777500329686
H        16.57958784273012    7.62303981974164   11.43427622178983
C        14.82108970400279    8.25751888579915   12.49852830294607
C        15.44052128317914    9.35709804867243   13.12951169432408
H        16.48560280340952    9.54592465347302   12.92646105751471
C        14.74100204267256   10.16379427686990   13.98180451311608
H        15.22349185186164   11.00242608136884   14.46294449538600
C        13.38753390416100    9.90224194919537   14.24267122405517
H        12.84639369459186   10.54241035029328   14.92496163512699
C        12.75752628075133    8.84690077741849   13.64387585097097
H        11.71728392250351    8.64842786050614   13.85496943671464
C        13.44828469564689    7.99788834804710   12.75353305024333
C         9.32424683027337    3.77768776388333   13.77979077168159
C         9.64754230824300    2.60716549823248   13.12949005812142
H        10.14523563952632    2.65374411560034   12.16819174235874
C         9.28346695181387    1.35923504763751   13.65463317145512
H         9.54564221698139    0.46085182753021   13.11412342085833
C         8.59203127914572    1.28289797508328   14.83017986190989
H         8.29930066899991    0.32573768978707   15.23831988134283
C         8.24958020467651    2.45455866500037   15.53676427408585
C         7.54874733763477    2.39741258606056   16.76074328259738
H         7.25792653917221    1.42888840721730   17.14378379452462
C         7.25220874465522    3.53723056492300   17.45340984997398
H         6.71818067821690    3.48404342117079   18.39110353289720
C         7.65170460666996    4.78641185936923   16.95484232175636
H         7.42573930162093    5.67888327545690   17.52020281502673
C         8.32157660626972    4.87685237508930   15.76693668519792
H         8.63377607239713    5.83944160606204   15.39072404573844
C         8.62808648917610    3.72140255270866   15.01737793500000
O        13.87534550339086    5.91671674355547   15.52133593716625
C        11.67021126148863    6.38147897144027   16.34956227745473
H        11.31224938939696    6.64769320972046   15.35854453777663
H        11.12147914541909    6.95253117739160   17.09376372140402
H        11.48870917735904    5.32179195068096   16.51699486896725
C        13.15274947796595    6.68289084290103   16.46273509579307
H        13.33704940417031    7.75269209231266   16.27424646440458
H        13.51344964121013    6.44539029700032   17.47652410708932
C        15.25491500823340    6.22065787063838   15.53615183715576
H        15.64236744641216    6.08611512854824   16.55875818780591
H        15.39646578594167    7.27559777602154   15.25088219783020
C        15.99719739555158    5.31286866792190   14.57371957546036
H        15.59999527739744    5.42802513874800   13.56729507466228
H        15.88472400310972    4.27626511408887   14.88013250772997
H        17.05273091157955    5.57104639784827   14.56512405823786

