57
CSD_code = TILQAG | q = 1 | S = 0 | Stoichiometry = C14H36Cl2P4Rh(1+) | MND = 6
Rh        9.96981035525556    9.97633509300423    7.06486385606571
Cl        9.25751728327267   11.61951745043525    8.54432351179141
Cl       10.39085051102691    8.61942639107092    8.90266952842161
P        10.45256250492716    8.13313664164500    5.74195122694468
P         7.69871450550395    9.46495725704679    7.22644999697448
P        12.18443432762696   10.54001505072181    7.53835399925891
P         9.75349418074609   11.56352279496845    5.38674859120250
C        11.11111422677442    6.64937492959485    6.57185244617573
C        11.64835505178764    8.32916820528266    4.36794577301336
C         9.02921842425283    7.39548588962108    4.83613532559324
C         7.84223142867564    7.05266870839094    5.73435828783198
C         6.96862797598778    8.26613245916483    6.02707270648347
C         6.45315896612638   10.79446055215685    7.09611144974671
C         7.25777414069087    8.72811555323179    8.82838952117883
C        12.35022046549098   11.53299197996942    9.05176461851739
C        13.41491937062206    9.22540782892594    7.84562090202650
C        13.13015251264238   11.53926792774500    6.30695273499653
C        12.33591207785472   12.67176172728824    5.66816963503663
C        11.32588765155035   12.16412321595188    4.64071619317689
C         8.82164991675733   11.11809252359025    3.87367901376080
C         8.97413771349856   13.15313567598921    5.82245364021261
H        10.39950338841903    6.29435618909830    7.31464482262563
H        12.03808164528455    6.88353681834912    7.08840061220128
H        11.28661130672513    5.87592498027345    5.82389592005512
H        12.61029213423458    8.65460664041005    4.76000792877963
H        11.77386747862521    7.37303357543620    3.86096941764993
H        11.29099320056106    9.06787250865147    3.65373542543768
H         8.71205066864226    8.07530688212551    4.04155595544025
H         9.41540576609173    6.48537483731711    4.36602043639617
H         8.19662605331259    6.62116065378174    6.67411549091018
H         7.23265701983836    6.29517124510589    5.23562915723484
H         6.74419587677069    8.79502501203707    5.09664357042515
H         6.01897256306909    7.94212658624705    6.46334702749470
H         5.47043764490816   10.35078824834001    7.25539912664790
H         6.47757924250934   11.25853222177009    6.11222655065104
H         6.63801828595976   11.54567288030650    7.86120342530740
H         7.74634411023758    7.76301179453877    8.95225402368698
H         6.17522936514845    8.61020327639547    8.87743622249609
H         7.59567219996523    9.39073704334113    9.62495764284167
H        13.40945304735370   11.66931150651544    9.27017354550401
H        11.86490399368950   12.49987735213431    8.92934797722299
H        11.86664845547087   11.00539342379712    9.87365880262626
H        13.54975954462886    8.60060310924966    6.96501162377221
H        13.09339557168601    8.61224247302282    8.68502801764573
H        14.36315494928399    9.70420315193408    8.09014507699492
H        13.99031607168618   11.94821227411925    6.84549662055278
H        13.51089017732053   10.86920262998827    5.53115292170218
H        11.82289135868471   13.24337101603401    6.44607125325428
H        13.03282253013839   13.34972253170975    5.16942648615642
H        11.77157698324020   11.36661773236482    4.04110362218135
H        11.04295967370316   12.97640035647795    3.96355913292730
H         7.80000445343252   10.84900322608511    4.13610028995688
H         9.29026404055100   10.27465932782714    3.37122653207095
H         8.80379187257809   11.97209974571311    3.19742039540974
H         8.94377886359712   13.78533898984614    4.93482864081144
H         7.96713721724313   12.99183197719651    6.19770025315264
H         9.54546965433715   13.64246992665846    6.60872309336468

