41
CSD_code = TILTUD | q = 0 | S = 0 | Stoichiometry = C16H20ClO3Rh | MND = 8
Rh        9.71733813259809   10.77027102889408    0.14722235404328
Cl        7.53798730470839   10.30408718109485    0.59839031523794
O         9.01025889582797   12.68652156132983   -0.31370303350960
O         9.13635954884729   10.53391361982330   -1.90587637471885
O         6.97214690664365   13.75512516936399   -3.05587334441182
C         7.40587442491557   15.00702469708091   -1.05127714456624
C         7.60378922792250   13.76903183348555   -1.86194794481804
C         8.36718609976419   12.69895755102178   -1.43622315285331
C         8.46755421339111   11.52918307947731   -2.29956062631313
C         7.80347456515020   11.59981649647743   -3.55204617897317
C         7.08038873287787   12.71094625567463   -3.85481471994369
C        10.76893864882835   10.88249825861704    1.98820690890407
C        11.68666693403301   11.33746698639066    0.96262642878671
C        11.86234115701991   10.28315313226780    0.04172028440406
C        11.08349217819556    9.14718672029311    0.50818220470509
C        10.49393781717432    9.49373987616453    1.75429102439322
C        10.41848765317185   11.63877376358759    3.23014618165257
C        12.33957625760284   12.68138256043735    0.96256790388672
C        12.77351087005570   10.24159276010872   -1.14238535482946
C        11.11116242091624    7.78619299211591   -0.11166879752378
C         9.73229211145598    8.59529405388570    2.67453769276838
H         6.37787479393157   15.35263821561973   -1.13715769205062
H         7.63840366059553   14.77675639727559   -0.01509593985157
H         8.06719559465000   15.80555409953423   -1.39060169817106
H         7.85667401828325   10.76701475492660   -4.23246181547973
H         6.52655509884280   12.83085662718609   -4.77459876945374
H        11.17977853992802   11.46653112462019    3.99409837955338
H        10.36633316658539   12.70569909860687    3.02807990718271
H         9.45624213624538   11.31108262581403    3.61609026444068
H        12.97046154122896   12.78028627463120    1.84683464374813
H        12.95361092078152   12.82211951599989    0.07714797958203
H        11.58752086441566   13.46869969595985    0.99010890394549
H        13.63731344327471    9.61367828061361   -0.91639592423580
H        12.26299267535043    9.81772476606277   -2.00537236636687
H        13.12486201387517   11.23593274329595   -1.40586293409727
H        11.99162266992249    7.24125695853103    0.23591223573962
H        10.22068825190546    7.22259854897439    0.15549103034324
H        11.15810910197182    7.85850361042381   -1.19582752924587
H        10.01930768340256    8.79660273687996    3.70558545917099
H         8.65912712043119    8.76578635018737    2.57705606356878
H         9.93706260330573    7.55201799721530    2.44625517536183

