136
CSD_code = TILYOD | q = 1 | S = 0 | Stoichiometry = C72H56CuO2P4Se(1+) | MND = 4
Cu        2.92656048181622    1.51873858979936    4.62725835414888
Se        1.78509091102987   -0.63139832369996    6.52633003359498
P         2.06140404690946    3.12678347234291    6.00519329164338
P         1.64787690492800    0.77270519146095    2.87128974645685
P         5.05427619524986    0.89835997828944    4.20570096837334
P         2.60837651844232   -2.51875092241822    6.93096871657024
O         0.10309462712851    1.83785720360884    4.74808795055383
O         4.69161658173137   -1.70339650086023    5.18614908891240
C         1.42605639006135    2.57202433405848    7.61931626658167
C         2.37334692873127    2.27723298829558    8.59850867725531
H         3.41969206184539    2.47468535634521    8.40497594509111
C         1.97904661313696    1.74669028754166    9.81087148129941
H         2.71842395631697    1.51661603066703   10.56438147925110
C         0.63709205650555    1.50271197152777   10.05671670806924
H         0.32897419801845    1.07868498146325   11.00101485869210
C        -0.30815410319499    1.80840830883272    9.09290874492692
H        -1.35518841936157    1.62756188423334    9.28724086436471
C         0.08052733877699    2.33921294509534    7.87538035600573
H        -0.66757560453883    2.57828132282141    7.13450491081497
C         3.18305154222766    4.46801981295116    6.50464772628034
C         2.87351863581052    5.36587542554412    7.52285776541637
H         1.93133568580699    5.27957212378137    8.04681634338634
C         3.77875446438419    6.35354627080865    7.86344367011064
H         3.54061686102632    7.05147001557007    8.65222470034775
C         4.99258374358436    6.44860423222358    7.19878221965734
H         5.69576034601498    7.22052107551944    7.47255923768490
C         5.30676042604970    5.55211035685382    6.19084532842920
H         6.25365298363061    5.62120632859844    5.67632122377459
C         4.40342516613575    4.56320742079185    5.84680524505336
H         4.63695625914584    3.84611329337700    5.06708125217366
C         0.64087686380265    4.00836385171794    5.28632628294247
C         0.44714961105155    5.37697021222193    5.20596084439319
H         1.16638509217481    6.05149849977227    5.64641333407714
C        -0.67272805008649    5.87095237372285    4.55553184250663
H        -0.83237125321025    6.93648264301783    4.50042953820818
C        -1.58274723860629    5.00652843929298    3.97116319060134
H        -2.44822310924199    5.40005831257803    3.46092166690292
C        -1.39172296160913    3.63430417777268    4.01910818626769
H        -2.08534307732834    2.96074651773364    3.53788445801998
C        -0.27879031536610    3.14285789954857    4.67651976827425
C        -0.64303907176193    0.80289619241970    4.23783035124472
C        -1.89743140033838    0.43745468860721    4.68778166401365
H        -2.39691144599532    1.01794816410850    5.44876398924480
C        -2.48688703422242   -0.69873911973522    4.15357374585002
H        -3.46637101855485   -0.99755088431788    4.49394543289845
C        -1.82701312837556   -1.45736257550319    3.20037229744227
H        -2.29960743328115   -2.34236436147782    2.80143824382514
C        -0.56691279186858   -1.09203221701225    2.75339258333718
H        -0.05050469547076   -1.68546456126629    2.01223514572142
C         0.02291376078137    0.05341659859317    3.26335311001447
C         2.28728346274396   -0.38555594683004    1.62566936897522
C         2.65420536005660   -1.63757773572060    2.11664503954578
H         2.49504086600410   -1.85690707955895    3.16502462926336
C         3.20366323606553   -2.58197677447153    1.27314518776314
H         3.46416722136826   -3.55828095388888    1.65479663827422
C         3.42474745640423   -2.26816576738971   -0.05906023463988
H         3.86058497925520   -3.00181516026236   -0.72010392932444
C         3.09149494948418   -1.01380271544728   -0.54329232873843
H         3.27180809194151   -0.77081259534825   -1.57989273588788
C         2.52274045934365   -0.06890998959134    0.29326206487695
H         2.25747891651181    0.90806974492901   -0.08771438834241
C         1.11040090007988    2.24174271092847    1.93969065237176
C         0.05841580537375    2.19550222835296    1.02952497645790
H        -0.42770860288237    1.25245826761517    0.81711786959475
C        -0.36068883803741    3.35637924880844    0.40642171765798
H        -1.17650092212401    3.32154693933310   -0.30017954317860
C         0.25835164901815    4.56399864124754    0.69073309806057
H        -0.07904608188949    5.46793895456120    0.20708093374970
C         1.30610569468104    4.61334724147457    1.59509668668839
H         1.78793457653990    5.55282611162023    1.82010080273102
C         1.73024809313276    3.45497460841868    2.21910254975295
H         2.54344896815044    3.48318736602165    2.93740255470807
C         5.65699177051800    2.21989079210139    3.11277803077943
C         4.96531531776345    2.36621017819375    1.91028706399137
H         4.17648990373478    1.66154979651895    1.66840319228753
C         5.28216836482350    3.39114339739660    1.04090380767244
H         4.74462432173256    3.49484006635026    0.11005799359499
C         6.28517218976818    4.28939281093798    1.37253633255894
H         6.53458989862908    5.09276384369822    0.69641766787995
C         6.96124224456111    4.16090381515874    2.57445171145295
H         7.73674924555024    4.86617432432663    2.83376459848468
C         6.64818701094406    3.13409726924288    3.44923144422610
H         7.16919130774898    3.04782608813658    4.39241873179653
C         6.18168151538699    0.89531311783383    5.62819980836217
C         5.60507286688432    1.02442303125974    6.88637800281218
H         4.52762520464780    1.12467875021486    6.95643596296124
C         6.39886399419495    1.00146921344103    8.01790173999101
H         5.95102563017809    1.09403976576240    8.99612220200160
C         7.77052285633745    0.85383262898738    7.89207950179520
H         8.39374182102961    0.83869148715668    8.77335201245845
C         8.34803459151996    0.71975007258277    6.63836439526808
H         9.41757504147999    0.60051180116853    6.54700918453405
C         7.55845062939361    0.73093475870904    5.50309552619705
H         8.00061343397057    0.61082757252439    4.52230890948625
C         5.62112329358329   -0.59166954387596    3.31809338681778
C         6.23085307334035   -0.62739989561429    2.07142577894052
H         6.40090023716978    0.28891533781045    1.52591161162376
C         6.63724446360934   -1.83785172593803    1.53801295139287
H         7.11761220708107   -1.86016203481899    0.57204983713954
C         6.44341957681861   -3.01468085558403    2.24168871162358
H         6.77349986923422   -3.95406343892417    1.82590256743496
C         5.82187133360671   -2.99618843031097    3.47916442738832
H         5.65653031367785   -3.90915817153497    4.03160078643791
C         5.39760994909232   -1.78751301157605    4.00412116883824
C         5.26280390542097   -2.18228929133083    6.33020464322457
C         6.63139895161950   -2.27308221553360    6.53701035130865
H         7.31473345195815   -2.03463727008808    5.73581910947784
C         7.10669257227428   -2.65135033377482    7.78043409220856
H         8.17184310493342   -2.71156672896669    7.94148481417539
C         6.23167320586775   -2.94058565985109    8.81468215251991
H         6.61234355183694   -3.21806954471485    9.78506489563745
C         4.86586741562115   -2.89475332421805    8.59754762759970
H         4.17387387887946   -3.14861235125526    9.38779598172825
C         4.37734087745570   -2.54144123646302    7.34858519328533
C         1.80608659243252   -3.31294936848806    8.36126169136614
C         1.17065226192672   -2.51339142180901    9.30210245097680
H         1.14508145032534   -1.44093908707895    9.15676707630475
C         0.57029869787038   -3.09198998327991   10.40542677631012
H         0.07718034222613   -2.47017835571027   11.13724874130491
C         0.59943740885765   -4.46758087577883   10.56696723525601
H         0.12786105703990   -4.92026811386441   11.42593380326636
C         1.22848117459482   -5.26624780143094    9.62450629480793
H         1.24608402205826   -6.33850100509127    9.74934319636108
C         1.83344196022285   -4.69439377131482    8.52027199673252
H         2.32167549439894   -5.31718340961384    7.78388407523901
C         2.43339796781685   -3.70998761464468    5.56464288924515
C         3.34384418887366   -4.74089081606605    5.36152504661580
H         4.19491862820274   -4.85048603964995    6.02181458896104
C         3.15184864766541   -5.62469519505518    4.31449003345419
H         3.85734668285352   -6.42686835259446    4.15333783603460
C         2.05605502035684   -5.48640515635234    3.47677457339627
H         1.91243732279229   -6.17950467518351    2.66152131717614
C         1.14429673401286   -4.46472599998214    3.68612552472337
H         0.28813802046367   -4.35928111242536    3.03707083645592
C         1.33282686789057   -3.57590090004826    4.72887689722534
H         0.63329372200844   -2.76702345197593    4.90080876834375

