135
CSD_code = TILYIX | q = 1 | S = 0 | Stoichiometry = C72H56CuO2P4(1+) | MND = 3
Cu        5.70897311052488    2.89420477422636   14.95150960725177
P         7.34499439740874    1.63645226540845   13.82705503015252
P         3.54557574978612    2.29378901265461   14.27393898877067
P         5.51064070341872    5.20599884129757   14.07454889297879
P         6.00851668157156    2.73712205152650   17.28868866103576
O         5.36812745516636    5.17466934013500   16.73471903235007
O         5.12272299070795    0.11214336877372   14.34060176977442
C         8.40532397072712    0.69418550898096   14.97474520069216
C         9.00380206866657    1.40960521475482   16.00954405951217
H         8.81749569635078    2.47288840858846   16.10326362295281
C         9.83560590989799    0.77043575525135   16.90843593668725
H        10.30833756180718    1.33065089801693   17.70152849816183
C        10.06159639957578   -0.59148755557743   16.79392825301014
H        10.70745245168362   -1.09274339547882   17.49839299562579
C         9.45894993275397   -1.30902895099523   15.77423157622155
H         9.63722370752465   -2.37022616598466   15.68300691047200
C         8.63492689579189   -0.67235097323506   14.86286789655627
H         8.17361320132738   -1.23601203954557   14.06372140518944
C         8.62020650945708    2.43300978849790   12.78750798882325
C         9.92474847984813    1.95830737313646   12.69062875196061
H        10.22598248992277    1.08284894614377   13.24822727180834
C        10.83577473213027    2.60717753760266   11.87671924497489
H        11.84641312770833    2.23417655912486   11.80295866223114
C        10.45687346763629    3.72825007079960   11.15571600123974
H        11.17237856374547    4.22894002574705   10.52139418302799
C         9.16071845372631    4.20717474537142   11.25244947192909
H         8.86035205665902    5.08021828706478   10.69260298952272
C         8.24981895597519    3.56501111096352   12.06921721802203
H         7.24018053030737    3.94742726330040   12.15919723539744
C         6.74402188436419    0.33382261746099   12.70068721824256
C         7.28438024573958    0.01881563554849   11.46334383264450
H         8.17173465770741    0.52948332166591   11.11937970468065
C         6.68373780187083   -0.94691329275352   10.67310520592095
H         7.11106590564632   -1.19599274585651    9.71444747541370
C         5.53476731344997   -1.58579697870890   11.10565438101980
H         5.06341688610701   -2.33053643862366   10.48334962157400
C         4.97225528324565   -1.27526606567871   12.33332147177544
H         4.06344469977971   -1.75839997937818   12.65983754484511
C         5.58145630953715   -0.32070319967979   13.12744813380508
C         3.90094291538246   -0.29800909508709   14.84347502206269
C         3.65046574899920   -1.57102421053106   15.32049074793211
H         4.40758464645420   -2.33802881883402   15.25227260009087
C         2.41488983542343   -1.83456827448503   15.89386411448390
H         2.20423065052174   -2.82506728304211   16.26617791177295
C         1.45713561669833   -0.83868822610234   15.99915591510756
H         0.50206934315140   -1.06073935931067   16.45048352176937
C         1.71397621291571    0.43992197599843   15.53108230473435
H         0.97434925219521    1.22274040958921   15.62129381235913
C         2.93777745189061    0.71096722705741   14.93854782885889
C         3.47520726363990    1.86911568875225   12.50010585702916
C         2.46450606071801    1.07445291174557   11.96474844829690
H         1.66804059933281    0.71034977901700   12.60034321735341
C         2.48661344680616    0.74861758644453   10.62125181205249
H         1.70102548484096    0.13427310771427   10.20701239808131
C         3.51254912534629    1.20337006043072    9.80722454316627
H         3.52417891850708    0.94172351584367    8.76023275685803
C         4.52318536019114    1.98750732778756   10.33696109898294
H         5.32778820977394    2.33938403761542    9.70896581158425
C         4.50350527910044    2.31477512422701   11.67941144900354
H         5.29514322644029    2.91570461304537   12.11039189655686
C         2.12631843666426    3.41153354909335   14.51627619784177
C         1.20173243795707    3.74698365626979   13.53308303444999
H         1.25351313488747    3.28761709038914   12.55554663484667
C         0.21164864795434    4.67379455458193   13.80942738997127
H        -0.50591373518383    4.93211571396075   13.04482155070503
C         0.13782895144871    5.27026831611207   15.05765707042941
H        -0.63743060411031    5.99213629628711   15.26452795166261
C         1.06075940339361    4.94338027172467   16.03817437121230
H         1.01007878571386    5.40759644984761   17.01169938898423
C         2.05800539271591    4.02810956750372   15.76379914881680
H         2.79443199847028    3.77719436574020   16.51529774392678
C         5.20388942330819    5.75630148960538   12.36091619019605
C         3.96050868604575    5.43466946812402   11.81900122890306
H         3.22524143938200    4.94185389924511   12.44299526101903
C         3.66908031420335    5.74691214560210   10.50555956775357
H         2.70143424405149    5.49952203236450   10.09487138764642
C         4.62209983233402    6.37199035893171    9.71659821653976
H         4.39765339441913    6.61552425106171    8.68937610055857
C         5.86364559962579    6.68169763393494   10.24644974231802
H         6.60594914602754    7.16865020367785    9.63132868955545
C         6.16094315393317    6.37119347083861   11.56214847840429
H         7.13338510373030    6.61121837930072   11.96899149805648
C         7.08129713195687    6.03742922472745   14.49834699503075
C         8.15788441632436    5.24737602349757   14.87914834601672
H         8.03451447344337    4.16960284876713   14.89260438923009
C         9.36114689199591    5.82458015389233   15.23807710248638
H        10.19389512056959    5.20190928130918   15.52912023590177
C         9.49039465956079    7.20313138635465   15.22496916069063
H        10.42704253706162    7.66012389453252   15.50549854358257
C         8.41722478981801    7.99881675091758   14.85387958273614
H         8.52001971213653    9.07379266179970   14.84652400510063
C         7.21304088122542    7.42317147876359   14.49292898205993
H         6.37413379400865    8.04309599782327   14.20538782983180
C         4.38343344140737    6.33037676081087   14.97858635119231
C         3.46764595697102    7.24058433464154   14.47671589580684
H         3.32560818091398    7.34338523056459   13.41117720780320
C         2.74626831989186    8.03176046638764   15.35655543040219
H         2.03897647004753    8.74852139166122   14.96844807451444
C         2.93135335373655    7.92034714366260   16.72446632478828
H         2.36979322933889    8.55039604018898   17.39689973004719
C         3.82825194360521    6.99808723917666   17.24224104836361
H         3.96449233411532    6.89020134749197   18.30784172909853
C         4.53945237895333    6.20618296377793   16.36148306536379
C         6.47399767642326    5.34105824686511   17.51637070063608
C         7.07163574010707    6.53928150954930   17.85590136319879
H         6.62417267417311    7.47857227657994   17.56721526744785
C         8.27308604846904    6.50128595274482   18.54728812329013
H         8.75320950137202    7.42785917461967   18.82074099688727
C         8.87005549041930    5.29326683727022   18.86648001518746
H         9.81876060628594    5.28444137690435   19.38017926684430
C         8.25815991714273    4.09353540607325   18.53656834035602
H         8.72969347139039    3.15355936509201   18.78057423424524
C         7.03124519334759    4.11138823272578   17.89476099414120
C         4.50086980755223    2.89111706919661   18.31909951289120
C         4.25740512118702    3.88777650279505   19.25458370754186
H         4.99210348640367    4.65863175005771   19.44047217755603
C         3.06991211584863    3.88783759086619   19.96662842221553
H         2.88440081362829    4.66502971580868   20.69357271500272
C         2.12581471097122    2.89652304863736   19.75925452032219
H         1.20212267284827    2.90547403115425   20.31751825943615
C         2.37534727578586    1.88626340645222   18.84400599875483
H         1.65082214304582    1.10130431848366   18.68624702582174
C         3.55726213989653    1.88421917760658   18.12967421954097
H         3.76435120997305    1.09622984620107   17.41682973098305
C         6.62853401572430    1.25251657146834   18.15542390580330
C         7.01734264983005    1.27852022239949   19.49100172645249
H         6.99397223921681    2.20651243722562   20.04448333262697
C         7.41613660429256    0.11042323280854   20.11368242583809
H         7.72942543696113    0.13401952561509   21.14677932785120
C         7.39977499244823   -1.09087139728934   19.42278080012511
H         7.71167209101238   -1.99939006469944   19.91518446882019
C         6.96556171147558   -1.12787547842353   18.10857840109013
H         6.92750872097765   -2.06696376008586   17.57622890753807
C         6.57949076185728    0.04024118934013   17.47858406815318
H         6.24070786831026    0.02534786261411   16.45234515517290

