41
CSD_code = TIMGAY | q = 0 | S = 0 | Stoichiometry = C13H19CoN6O2 | MND = 6
C         4.94665842174063   10.92224351411021   -1.53245174929131
H         5.74710994472409   11.64198115799514   -1.36452437467285
H         4.00047774506499   11.45599524311805   -1.56274621443740
H         5.10845599768424   10.43283516844112   -2.49129883650878
C         7.21329979234502    8.94839559656222   -0.96748844852195
H         7.27938034350022    8.03524167584666   -1.56034318841889
H         8.07441896993467    8.98303112853460   -0.30109898857482
H         7.25693504842124    9.79820661899760   -1.63939775356854
C         3.22384242256572    6.34943034944556    5.14630817463642
H         4.15592160646652    6.43012319884778    5.70410889655503
H         3.08970071286892    5.30731632298015    4.85431355150604
H         2.40184579533202    6.63399181314128    5.79369978923073
C         1.02457786903674    8.38890250820798    4.50175825293990
H         0.39665433982202    9.13006410385788    4.01210056609418
H         1.28595362654963    8.75501268315303    5.49405739878386
H         0.46433458652536    7.46078053605005    4.60155852861595
C         4.90785565890652    9.91544342783247   -0.42932807654335
C         5.94679124189078    8.96235089740638   -0.17310094837435
C         6.63834203839955    7.12487428869177    1.17512974649270
H         7.36960781688969    7.56374002656347    1.86762683607288
H         7.17600557917092    6.76356264173115    0.29123073751230
C         5.95210419852751    5.93475353294759    1.84087005243971
H         6.69174367607750    5.14601980304161    1.98894366856232
H         5.17179657103163    5.55787818743520    1.17644323796212
C         5.32942365157812    6.27744295844958    3.19204155378742
H         4.99025056508722    5.34598743108577    3.65881644875751
H         6.08858462190588    6.73336272290753    3.84292671946381
C         3.26837328093122    7.22605194942475    3.93597672379076
C         2.25060880904215    8.18501240661953    3.66883554126996
C         4.98891022793336    9.66842941391473    2.83427630760159
C         3.13113445386474    7.27476077315357    0.63329752347822
N         3.90601354469908    9.81785539055493    0.40130268647670
N         2.47855342026070    8.90181347738069    2.59049684612512
N         5.68936568091521    8.14314960278941    0.80203230756528
N         4.22490384973390    7.19368977523402    3.05329093537022
N         5.62748287007234   10.31232035267237    3.53671664729779
N         2.62357351452521    6.47119920285069   -0.00903739872910
O         2.88120649615136   10.66559077852119    0.24360403257552
O         1.64984471279542    9.80555722620551    2.22064826899845
Co        4.04063684727808    8.51850066360355    1.69886569061864
H         2.21141944974981   10.43670144969314    1.02833830706037

