26
CSD_code = TIMJUU | q = 0 | S = 0 | Stoichiometry = C10H10ClN2O2V | MND = 5
V         1.81092012342542    0.45354024923234    5.92656728164986
Cl        3.58222085049281    1.04213260630121    7.03928739943070
N         3.12781407151572    0.33770847927798    4.37539592926060
N         0.89425766190501    0.71841569044253    7.72931629406394
O         1.36775125467544   -1.00646292666413    5.79481660853236
O         0.89779522867905    1.45232283392266    5.20976736586719
C         3.41145147232546    1.42018117260019    3.66209761690652
C         4.41024191737845    1.43724314404786    2.70152255129600
C         5.13987428512903    0.28067354821885    2.47477363448534
C         4.83113203673355   -0.84920190797563    3.21556799547285
C         3.81571285575309   -0.77533213966106    4.15653425782943
C         0.53509831549531    1.93605383067287    8.11533196361462
C         0.03871175238792    2.19853797160144    9.38253386123805
C        -0.08789060880066    1.15098552706751   10.28155969282595
C         0.27952150644238   -0.11982976451888    9.86868441803417
C         0.76567400306474   -0.29054676467408    8.58134040046217
H         2.81016994090885    2.29873402531258    3.87203193404857
H         4.61073883732912    2.34003596006476    2.14588830416438
H         5.92951511116321    0.26051993906209    1.73816602546491
H         5.36822865842664   -1.77364317589887    3.07068603283100
H         3.53510217701380   -1.63351026419376    4.75828363391726
H         0.64992400990712    2.72309893421792    7.37711206200367
H        -0.23925594195886    3.20433643916555    9.65640679807646
H        -0.46526414196616    1.32087511549148   11.27913731362501
H         0.19387225641615   -0.96705490885570   10.53123795217764
H         1.06138236615881   -1.26621361425690    8.20995267272223

