82
CSD_code = TIMJEE | q = 0 | S = 0 | Stoichiometry = C39H38ClMoP3 | MND = 9
Mo        1.68341184378565    2.12670111307546    4.66436246494678
Cl        0.16439115479331    1.91327591765195    6.67553320976404
P         2.60234486222090    2.85287275750745    6.69297862389711
P         3.89218801925338    1.50238612170530    4.40072703609765
P         1.47009994958217   -0.23305287242046    4.64305778163396
C         4.39511920399560    3.24035925930368    6.42280204648444
C         4.98107518101855    1.98076599375417    5.80619183725697
C         4.17464839683276   -0.31787843525948    4.28483403986756
C         2.90284967640275   -0.93764859396639    3.72498532060801
C         2.83999002291728    1.92336032657850    8.24197281267539
C         2.72216975870786    0.54353883838900    8.22922972701655
C         2.97360326496146   -0.19655342376137    9.36995847250699
C         3.35963118175594    0.44673781639888   10.53345326437564
C         3.50226829640815    1.82585136045647   10.54765045008260
C         3.25108057707446    2.56546184388600    9.40726624906991
C         1.96807302236212    4.43656780300494    7.31294542044825
C         2.33493430511646    5.62759113604228    6.69328004109075
C         1.79280039791832    6.83069926580139    7.10666861461247
C         0.86578158360909    6.85811690768356    8.13530027376194
C         0.48251522943544    5.67587826189680    8.74645629965932
C         1.02792706520704    4.47218984676136    8.33984096371420
C         4.82003690481876    2.12178967021098    2.96046457361327
C         4.76899623681144    1.44211956107332    1.74560008347843
C         5.38982932844802    1.95555585499820    0.62208878201914
C         6.06253260232962    3.16427839514734    0.68984975188519
C         6.10973417696011    3.85500666696617    1.88873930207894
C         5.48986476894278    3.34082245287717    3.01312269725930
C         0.04577975250648   -0.80520396918023    3.66025318149446
C        -1.16985197886847   -0.16997615000320    3.90119383012849
C        -2.31253486774999   -0.55799226417380    3.22804418191373
C        -2.25211062210488   -1.58266822203556    2.29712954634218
C        -1.04811702101607   -2.22098210281923    2.05465718902946
C         0.09555720129579   -1.84331838828117    2.73752710368720
C         1.23187725316300   -1.44234358413136    6.00526325460296
C         0.02914534100350   -1.39494762109012    6.70779473539197
C        -0.21217964035279   -2.26998281720273    7.74941582972421
C         0.73873632070523   -3.21257101752476    8.10338501203055
C         1.93767052602220   -3.26515748057299    7.41391751522160
C         2.18791468174880   -2.38520699628021    6.37566108129566
C         0.83333544857361    4.16105936948627    4.10935201363065
C         1.97943475350947    3.89243347376234    3.32468047706252
C         1.67638126415823    2.77854807912632    2.48700204268914
C         0.34205544205608    2.39547243930143    2.73998255631066
C        -0.17012002605270    3.23445715147704    3.73811073901344
H         4.46950069074543    4.07732185118655    5.72680138977614
H         4.90080895021848    3.51110353075986    7.35552851148801
H         4.92260629771263    1.16544965841376    6.53903684185999
H         6.02260831004229    2.09933213032835    5.48749306840790
H         5.05803772651062   -0.55191931873411    3.68066554324831
H         4.34365802987245   -0.66752462949370    5.30975495139768
H         2.92745506854901   -2.03052618400235    3.76086144436476
H         2.74873762733004   -0.62285237493389    2.68696406574298
H         2.41639112350047    0.06576282639256    7.30731023991572
H         2.86480656237305   -1.27137406022987    9.34772507198054
H         3.55269457886553   -0.12388335431085   11.43034114468169
H         3.81117262744865    2.32712217045070   11.45401526807196
H         3.36391811737514    3.64183564389796    9.42229337607831
H         3.03994975703869    5.61644928919799    5.87308854461430
H         2.08953265791676    7.74956295367544    6.62043949588716
H         0.43959518374431    7.79817945488307    8.45461955679554
H        -0.24753264954105    5.69058642316295    9.54290085751629
H         0.72280910938407    3.55069511562398    8.81540903498865
H         4.23967004409194    0.50221443214557    1.67565022297247
H         5.34547657887080    1.41312640486563   -0.31174960622102
H         6.54474346520272    3.56709273498773   -0.18844665562621
H         6.63050926492315    4.80024928238406    1.94753638245585
H         5.53601984470855    3.89221705811276    3.94087363080994
H        -1.20583841872691    0.64257581894237    4.61593435535732
H        -3.25079738182604   -0.05868316098647    3.42363119646457
H        -3.14115216512382   -1.88294953510617    1.76181949601758
H        -0.99818401450884   -3.02210289840116    1.33082456598888
H         1.02216753219730   -2.36250255515746    2.54235465743926
H        -0.71186592223064   -0.65615055128562    6.44535088788410
H        -1.14715342710105   -2.21620035885300    8.28734601707106
H         0.54993726640765   -3.90003523385610    8.91514819318317
H         2.68810564040647   -3.99471176585354    7.68585836628332
H         3.14115799524118   -2.44073898101552    5.87120180350149
H         0.67350762242419    5.03001133748845    4.73298243988700
H         2.83952231331222    4.53789244579418    3.20880230914171
H         2.27261774805338    2.45061436847218    1.64558209328189
H        -0.21323625315529    1.65269834061173    2.18434800683485
H        -1.19002834202314    3.24214794552141    4.10167280087585

