33
CSD_code = TIMMOR | q = 0 | S = 0 | Stoichiometry = C12H17ClPdS2 | MND = 4
Pd        9.16161891801083    3.14437287474431    5.24865847228269
Cl        9.09186945338790    4.60643381435360    3.45659103690689
S        11.40294796480087    2.74709496354216    5.01612158307320
S         6.92702124524671    3.36007143957507    5.69478776979997
C         9.22139566130387    1.88071554869104    6.79069762264423
C        10.41313868764117    1.23815475412395    7.14107223278821
C        10.45296369240529    0.36378199937668    8.22033889900661
C         9.30692499043340    0.11192051026074    8.95304823862062
C         8.11863823307896    0.73513583095286    8.61645966978057
C         8.07342610631832    1.61957900013550    7.54564502376043
C        11.65042734897279    1.47621031137299    6.32228578472031
C         6.79067481766626    2.32643144541360    7.20982517199761
C        11.71542506560221    4.29361592961641    5.96567599390122
C        13.19962816777245    4.55330201260881    6.13763156531267
C         6.60242786052494    2.10696003339551    4.38495351470500
C         5.11884403270945    1.83364212614988    4.22946955532551
H        11.38213793347968   -0.12314562229387    8.48176323428535
H         9.34004917004745   -0.57109474829964    9.78848346767785
H         7.22256131132473    0.54020407395548    9.18892672997913
H        11.93571995958048    0.56936812335949    5.78315873352864
H        12.49845718989367    1.79057556227619    6.93270861534788
H         5.96027554963430    1.63377382931428    7.06410904835069
H         6.51679715726074    3.02496123251829    8.00439681867232
H        11.25071990739752    5.08366118093396    5.36322833911535
H        11.20082977575463    4.20958743820051    6.93191845554414
H        13.68796977802943    4.60397926398118    5.16746120926317
H        13.35119940106494    5.49987712601184    6.65198134847053
H        13.67444001256379    3.76848430996961    6.72350995924790
H         7.01265823995643    2.55297416373395    3.47058790578803
H         7.16108933087684    1.19677004199298    4.63956388688276
H         4.58801741175427    2.75453943705178    4.00061482548006
H         4.69668297514721    1.40725297035771    5.13756935326710
H         4.95722265036008    1.12910902260950    3.41645593447810

