46
CSD_code = TIMMIL | q = 0 | S = 0 | Stoichiometry = C14H25Cl2MoNO3 | MND = 6
Mo        1.00359821480629    2.19501824911679   12.00542342057799
Cl        2.27665118917580    3.96618767670138   12.76402355338676
Cl        0.56721998131755    0.76449018313829   10.24650558881387
O         1.30858782948051    1.11529350050281   13.21065093150697
N        -0.56197578899291    2.92612076043364   12.14017171097725
C        -1.79742157530525    3.22133412826904   12.71790552768599
C        -2.94936912070821    2.95045851055783   11.73401772622134
C        -1.83848889123941    4.70207694614082   13.13965164960569
C        -1.98225563801256    2.33874568897528   13.96440715483413
C        -4.28192924910570    3.26042177055410   12.41184848332888
C        -3.17503932924427    5.00450342084991   13.81232630794496
C        -3.31734207904307    2.65182914535469   14.63194928007098
C        -4.31398536086484    4.73061150853229   12.82989221710810
C        -3.34373730435679    4.12228793349494   15.04862711450699
C        -4.45311830078627    2.37613276399242   13.64653885469352
C         1.05951975269922    4.77893759619170    9.80202478396418
O         1.63111898297352    3.48901868988266    9.92819678161795
C         3.02094429598425    3.48379837979590    9.64812523029071
C         3.53125513600158    2.05363536919429    9.77800183951420
O         3.33795462276892    1.64066642012630   11.11447375632418
C         3.71629831923541    0.29637997764598   11.34290084618611
H        -2.90333019517988    1.90374727697109   11.42361327074935
H        -2.81820100403489    3.57251811106708   10.84517865431438
H        -1.00358663033633    4.89107116180653   13.81943326837277
H        -1.70400366947568    5.33128402887759   12.25633063056333
H        -1.14210152070734    2.52558252528736   14.64047139062936
H        -1.92819861363378    1.29142598328321   13.65304553218364
H        -5.09680109981712    3.06401674230911   11.70569329742359
H        -3.19519143435653    6.05915159861939   14.10982551002302
H        -3.43913847196612    2.01847735104360   15.51715045867382
H        -5.27244323888199    4.96081022046662   13.30036287572548
H        -4.20997665765577    5.37071194867125   11.95072440702372
H        -4.29108366499446    4.35315758750642   15.54123021678290
H        -2.53774996129767    4.32018913745585   15.75774913985938
H        -5.41557203534853    2.58441597636027   14.11956515771766
H        -4.44201807053720    1.32440665704271   13.35408442348073
H        -0.00681312017159    4.66471764193149    9.99581430675009
H         1.49640155925127    5.47315164665605   10.52956406761902
H         1.21572120090682    5.15795967787087    8.78510127098815
H         3.54825828508729    4.13506027066543   10.36272805153695
H         3.18855224485649    3.84516398432114    8.62282985040904
H         4.60233126176716    2.01768938895888    9.52774554695916
H         2.97159544571868    1.39587159869648    9.09405153281075
H         3.47674327274006    0.08424054677009   12.38480831758680
H         4.79153753182533    0.17265635583649   11.17015208392986
H         3.15608289945900   -0.38462603791936   10.69178397872955

