109
CSD_code = TIMTEQ | q = 0 | S = 0 | Stoichiometry = C45H57N6Y | MND = 6
Y        -0.00018783512455    9.30854932284688    6.42213560878564
N         0.25440485374201    7.19431256748867    7.41743925201564
N         1.23457301323703    7.57302062884678    5.42870514676879
C        -0.21046524481150    6.32004439363940    8.47563918708730
H         0.27024686851187    5.33055579482985    8.40402803134914
C         0.13379614250430    6.93880790491456    9.83213137328682
H         1.21191777428945    7.04779575911091    9.93346461281073
H        -0.23060925847573    6.31002364162873   10.64168249420709
H        -0.33073612284936    7.92060210394820    9.90754627899746
C        -1.72715895428762    6.14103542437052    8.34172084761641
H        -2.20483353117304    7.12073247093779    8.30994243209022
H        -2.12402376683989    5.57395929297547    9.18121040754559
H        -1.95950900976244    5.61145632795338    7.42014037147716
C         2.16315990734511    7.23896674079685    4.36741879458031
H         2.48346925107709    6.18711510942287    4.44541421162185
C         1.48034536511772    7.44709959608921    3.01374573688995
H         0.61230751634255    6.79649448254791    2.92583734689082
H         2.16784993909055    7.22280139141189    2.20099775263535
H         1.15675027367942    8.48323331805210    2.92999661827943
C         3.39799164089485    8.13964293018447    4.48507105952268
H         4.06644031999680    7.98959186769890    3.63980239966434
H         3.93730445837274    7.91399774091525    5.40264149612814
H         3.08201163817693    9.18283757992568    4.51474475319490
C         1.00086792143886    6.72899462937956    6.42480836972508
C         1.52597278196135    5.39804869787571    6.42901801487527
C         1.97850882742258    4.27786771066237    6.43358932389958
C         2.50865882656975    2.96807976839744    6.43635726846797
C         2.52400965066494    2.21478033117688    5.26148580480905
H         2.12304631466657    2.64106808157318    4.35326518084123
C         3.04497529804402    0.93548063136887    5.26916547989583
H         3.05302561253773    0.35419696195369    4.35848164219333
C         3.55654237605422    0.39664589347422    6.43925356564353
H         3.96461806742655   -0.60335133364916    6.44017495778049
C         3.54431394663122    1.14168449942378    7.60793910104001
H         3.94473000122167    0.72218821867379    8.51955801456400
C         3.02265975756514    2.42067966066583    7.61279166428259
H         3.01132045692006    3.00773944029870    8.51981011113602
N         1.70434069723797   10.58548114274310    7.41690224365547
N         0.88543542062127   11.24580965521629    5.42879771885859
C         2.69448374978953   10.61967506974882    8.47458724321648
H         3.31145054772225   11.53040545647446    8.40245896918903
C         1.98732018245365   10.60911847542604    9.83152307412927
H         1.35434384561724   11.48863179051954    9.93295892012672
H         2.71454923416760   10.60785132512926   10.64065149974476
H         1.36895738994676    9.71624805805406    9.90756879137198
C         3.60713293624924    9.39518554306273    8.34033042578771
H         2.99701886997801    8.49199496802158    8.30900877396487
H         4.29708271443038    9.33473352472292    9.17946028205176
H         4.18146462776981    9.45830117429827    7.41842004610534
C         0.71002073253889   12.21728735208014    4.36784354463013
H         1.46091465632211   13.02051909479095    4.44568108074712
C         0.87041461506075   11.52210255037130    3.01396130434742
H         1.86778029300714   11.09556382082166    2.92542389647725
H         0.72053419948060   12.22981047191818    2.20143211463443
H         0.13474770305033   10.72389657851320    2.93043589262206
C        -0.68727246701752   12.83650806864594    4.48626880207882
H        -0.89180043810006   13.49069164227561    3.64126527479404
H        -0.76099584778976   13.41618026472306    5.40400845153702
H        -1.43284586216847   12.04138577900164    4.51608235814720
C         1.73365156344656   11.46503501377302    6.42464104547502
C         2.62357161651841   12.58541777355904    6.42934388712680
C         3.36769229274609   13.53715327373616    6.43353262000650
C         4.23636194005413   14.65164182261936    6.43667264656502
C         4.88079710212366   15.04246784892928    5.26196230239591
H         4.71224533197088   14.48244699410228    4.35347631217768
C         5.72789626945448   16.13351005314972    5.27015443922092
H         6.22713536516185   16.43177750754096    4.35960204252932
C         5.93873387710894   16.84533100669413    6.44061471157293
H         6.60044213757210   17.69894429140718    6.44196801033769
C         5.29995179226996   16.46131648620019    7.60919169493711
H         5.46303463542043   17.01731606495759    8.52112080854587
C         4.45346113913412   15.36978751239688    7.61354612245744
H         3.95107019150998   15.06567425825085    8.52049813723626
N        -1.95799851528761   10.14599738955690    7.41752741041579
N        -2.12083916721859    9.10678723830785    5.42938001168030
C        -2.48240060255552   10.98637977477050    8.47535231023867
H        -3.57972410988118   11.06449206229947    8.40414711589282
C        -2.11796291028046   10.37984824108912    9.83208841747784
H        -2.56250367637286    9.39170400412535    9.93432691668679
H        -2.47995229239606   11.01035551199887   10.64138423002141
H        -1.03540018316700   10.29137665942515    9.90702633476629
C        -1.87947419803258   12.38942609179163    8.34017360236786
H        -0.79219366179822   12.31348303421967    8.30799322344344
H        -2.17192183361240   13.01718052862396    9.17935041235717
H        -2.22243486952907   12.85469545286077    7.41840322869343
C        -2.87466114960762    8.46906521225979    4.36860404751902
H        -3.94580059434424    8.71722906987990    4.44696902604264
C        -2.35371334497446    8.95604990635692    3.01454886452686
H        -2.48359672309176   10.03301139891724    2.92629413204020
H        -2.89183839192530    8.47227757502358    2.20219878911923
H        -1.29453602850556    8.71860119269483    2.93047288438437
C        -2.71148029034798    6.94942517071796    4.48668978381815
H        -3.17591371163881    6.44511323809593    3.64182828840780
H        -3.17597773787541    6.59534632778928    5.40460849150366
H        -1.64996007224984    6.70182855322601    4.51594061143826
C        -2.73453285817973    9.73196218807460    6.42525579870141
C        -4.14957869297461    9.94331590797239    6.42979786606701
C        -5.34575728076539   10.11332223172817    6.43330460187390
C        -6.74503785054556   10.30956005401748    6.43552570490090
C        -7.40446416657953   10.67325986044157    5.26041665199639
H        -6.83442394809857   10.80671185465351    4.35234652202731
C        -8.77266936584394   10.86300006423950    5.26768975620291
H        -9.27962384588786   11.14674759726118    4.35677501686045
C        -9.49557245864802   10.69031380348630    6.43760908200626
H       -10.56549667518933   10.83784606609455    6.43821910237669
C        -8.84487173697190   10.32809308056220    7.60656541478312
H        -9.40870350123089   10.19202809968342    8.51811676800996
C        -7.47655649203523   10.13915153913941    7.61183969948539
H        -6.96294519551895    9.85563272291388    8.51917968041770

