87
CSD_code = TIMVOC | q = 0 | S = 0 | Stoichiometry = C43H34AsBMoO5P2 | MND = 6
Mo        6.33708752887588    2.63406019566383   -2.44899643876731
As        7.41829589191375    3.20264205058353   -4.75222329324118
P         8.47032999165395    5.20028407128546   -4.78132633102211
O         4.84863985069418    1.84963815906500    0.13982095849860
B        10.00834011892328    4.19164340832549   -7.09785690892366
C         5.40258809173740    2.14046921319158   -0.81598050964960
P         9.43665047433491    2.23559861071611   -5.02560615842671
O         8.84486046490763    2.57778721622215   -0.62790209449260
C         7.98512064855535    2.59380056679129   -1.38203201729253
O         5.75454677989339    5.57582612606181   -1.65676131418975
C         6.02788617050328    4.51310893970291   -1.98034081489827
O         3.58903142809876    2.76010452365574   -3.88819875476303
C         4.61731758211435    2.69849160963907   -3.39631578005046
O         6.53826590552908   -0.38953646161064   -3.11977865777294
C         6.51282996548583    0.73066072252196   -2.89570528980603
C        10.65571582422375    3.25479152294900   -5.88531530805406
H        11.16547736441868    3.85065972645348   -5.12452155726920
H        11.38637333992285    2.54881985163900   -6.29252572614442
C         9.13094599321215    5.46489458466427   -6.43931057650293
H         8.25096787967012    5.67254210115745   -7.05739017416498
H         9.70998809168859    6.39410385269368   -6.41751769738213
C         7.16855376972031    6.42458062350780   -4.46546864019408
C         5.87306084004041    6.14135409693781   -4.88933580608972
H         5.66751694867171    5.19620010736111   -5.39287347070959
C         4.85738309637571    7.05266780620070   -4.67155758625626
H         3.85207805619637    6.82498722431654   -4.99241797664316
C         5.13070154970329    8.25290228733843   -4.03385177272482
H         4.33540898678988    8.96032609275790   -3.85440087645661
C         6.42115343292966    8.54451618698230   -3.62453094790903
H         6.63341526513875    9.48048341989438   -3.12971587755228
C         7.44189721689221    7.63615786762239   -3.84040899859576
H         8.44874664417069    7.86075813888880   -3.51506087699470
C         9.74826366366647    5.59676195946355   -3.54212936504828
C         9.43326398972197    5.42670422231387   -2.19749628082551
H         8.43707240205445    5.10603250048430   -1.91937232927336
C        10.38048764669275    5.67232771938333   -1.22157606681826
H        10.12759453994422    5.52985395092759   -0.18189409238738
C        11.65059121931045    6.09372295483254   -1.58246662961033
H        12.39478965249370    6.27945356747105   -0.82257722587042
C        11.96334159749659    6.28362376334596   -2.91904236424510
H        12.94905723304527    6.62301469610991   -3.20176703222017
C        11.01868091422851    6.03787715671041   -3.90103001589769
H        11.27242163021232    6.18816465226675   -4.94022928473520
C         9.16537556002569    0.70995270218666   -5.96829515618224
C        10.26098373215120   -0.09114121253012   -6.27561284346448
H        11.25078570249851    0.20572878798674   -5.95397383047788
C        10.08255134882268   -1.26297561283818   -6.98452539783510
H        10.93493250152468   -1.87946900084641   -7.22864278164547
C         8.81088115033590   -1.64714151168142   -7.37978571200678
H         8.67330573976744   -2.56251932333771   -7.93535615274593
C         7.71685383978292   -0.86116538042647   -7.05988891505328
H         6.72539325011852   -1.16308488169094   -7.36082066795432
C         7.89226750710775    0.31508958349886   -6.35392931439505
H         7.03445652570473    0.94038598309190   -6.10999574138532
C        10.18895302197803    1.60212071474441   -3.48519775289125
C         9.79316719260225    0.35767861378649   -2.99896993759633
H         9.09819631289202   -0.24418178881094   -3.56941659383545
C        10.30263274552852   -0.11729858244845   -1.80538059353694
H         9.98829593957547   -1.08218018232475   -1.43629544837165
C        11.20884569765749    0.64340900835275   -1.08395311642485
H        11.60105222857017    0.27414758815449   -0.14856772966576
C        11.60601360287944    1.88032798272041   -1.56238900086317
H        12.30869803642277    2.47988418288540   -1.00287263075536
C        11.09713191482661    2.36126102376877   -2.75508434127724
H        11.41326628056219    3.33208843443623   -3.10942629952482
C         9.13350347719144    3.19039964263878   -8.02159069277660
C         9.81592825389365    2.18791222811115   -8.71699278529851
H        10.89548605509399    2.15242638805182   -8.65427765977623
C         9.16350527194090    1.25440583860216   -9.49840800739836
H         9.72952334621849    0.49324801531351  -10.01822367363691
C         7.78475586050071    1.29241659301592   -9.61734691863012
H         7.26737933741974    0.56288675215516  -10.22427753213018
C         7.08077550752336    2.28497962477803   -8.96101449111930
H         6.00488071460046    2.33968743574877   -9.05926950944506
C         7.74946105657434    3.21555027772649   -8.18205438018275
H         7.15912476458002    3.99316389701575   -7.70388318136824
C        11.18231657798050    4.88202562650816   -7.97189374124034
C        12.48025811261765    5.08901690741339   -7.51027740622173
H        12.76472284046733    4.74081145630126   -6.52524831828309
C        13.43993148826584    5.72566481735228   -8.27918455872702
H        14.43956068353523    5.86546832854715   -7.88848709183294
C        13.12382692921004    6.18236373121881   -9.54566801762836
H        13.87028861015614    6.67927426765158  -10.14944776932591
C        11.84061993362139    5.99284857215314  -10.03033433350662
H        11.58136554695355    6.34369931456233  -11.02003391306974
C        10.89265628472337    5.35521072934284   -9.25199449884232
H         9.89614983365887    5.20896084072423   -9.64542360031929

