124
CSD_code = TIMZIA | q = 0 | S = 0 | Stoichiometry = C58H59N4OSiY | MND = 10
Y         1.75387549948129   14.18240251883053    5.62818577100080
Si        0.68224477285866   12.60680362793510    2.66725333540655
O         3.38589511406469   15.94897949379739    4.38688846451693
N        -0.08108684217867   15.60984772844148    5.05618444510375
N        -0.34699263836374   14.01593576469512    6.61985911713612
N         3.36639090268958   13.63218223145002    7.23103867478390
N         2.52157385067569   15.71712723995778    7.32799924644147
C         1.83722091516338   12.37330385710144    4.16300766710142
C         3.27505733299542   12.23488781575951    3.84586079012425
C         3.76482068792346   11.09664910788242    4.43227085209153
C         2.70133069485324   10.43875423871492    5.12565335913358
C         1.55460457723310   11.17491564443734    4.98272344982579
C         0.99463135590196   11.21102311967113    1.39249036796740
H         2.01828462978699   11.23146254345974    1.03400147517408
H         0.33897982151626   11.29458474333151    0.53153076705449
H         0.83184580523880   10.23731183635756    1.84263997969499
C         0.93771136131766   14.28728723409436    1.76930388096536
H         0.98424686708263   15.11153856466455    2.47798499983004
H         0.10513513165703   14.48369698453949    1.10092829258031
H         1.83901794609317   14.30292264592190    1.16637119517313
C        -1.18982836569458   12.57390884737728    3.08185110938223
H        -1.54000692234666   11.57231434833897    3.30291931600320
H        -1.76241770769189   12.93663377989701    2.23335070350260
H        -1.42736154971419   13.20657212154404    3.93216231767247
C         4.04463989675431   13.12613541283217    2.91311308589149
H         3.50568701853839   14.05040506447659    2.72092009674873
H         4.20891526922401   12.62290257821698    1.95686157982028
H         5.02412567211381   13.36884495316306    3.32738790913214
C         5.17138169786848   10.59047981405018    4.40151055053394
H         5.78018354665980   11.16469565638865    3.70774386045822
H         5.19318950304823    9.54548668571624    4.09382116298585
H         5.62204186629666   10.65754712556060    5.39398396461855
C         2.84310835776358    9.11947930459455    5.81422335041536
H         3.82440476754212    9.02817175302797    6.27440532963539
H         2.73023607708350    8.30551185954656    5.09481327743182
H         2.08215693621501    8.99276452443988    6.58123354727341
C         0.20882449767314   10.77582538178278    5.51195581199382
H         0.28613660334163   10.41831705557612    6.53993217284726
H        -0.21076655290526    9.96223210954024    4.91609772051916
H        -0.49051609199289   11.60714528174774    5.49870107065997
C        -0.88318547317575   15.02811827708477    5.94480777465541
C        -2.16364036702992   15.58563743182758    6.21756565123143
C        -3.18540882464631   16.19775271263047    6.41997022485252
C        -4.40524343465813   16.86570451749509    6.65042301215651
C        -5.25978587154757   16.45048058587058    7.67305988840957
H        -4.97665486658538   15.61141224751564    8.29199366836068
C        -6.45234329955592   17.11527526260199    7.88248547662011
H        -7.11361791659430   16.79501439894955    8.67440138749548
C        -6.80212092579259   18.19118675208048    7.08117765544837
H        -7.73531321545767   18.70806924063855    7.24978381443932
C        -5.95475708103196   18.60586792719161    6.06495242721490
H        -6.22900071845405   19.44536561722110    5.44282881782356
C        -4.75909079777402   17.95056866493760    5.84539223399970
H        -4.08913132303254   18.26370132303810    5.05726480071151
C        -0.54614941387360   16.68553095407616    4.29472459378810
C        -1.65109265246852   16.56867756322120    3.44937510595941
H        -2.17852788294877   15.62768881198946    3.39430583214029
C        -2.05628746503223   17.64227782629626    2.68044508273637
H        -2.91238448536181   17.53853397275046    2.02896128088784
C        -1.37461007811433   18.84693106195682    2.74030848120015
H        -1.69662897018610   19.68421342325598    2.13911796501710
C        -0.27876286055870   18.97143126404858    3.57877332169146
H         0.25140523718908   19.91158667722050    3.63803036472043
C         0.13595283039350   17.90232971915089    4.34942127775420
H         0.97106052245062   17.99914721054712    5.02982411496550
C        -1.01330997615017   13.27492810257633    7.58298126117365
C        -0.23405385244873   12.72981137596896    8.61099796153339
H         0.82838799978551   12.95103603314763    8.62351923615260
C        -0.80628882059867   11.94007882571324    9.58557173429914
H        -0.19121360546143   11.53206166626071   10.37506597300117
C        -2.16565976355641   11.66646628438602    9.55433399726630
H        -2.61335237171357   11.04576162681921   10.31597662764236
C        -2.94179477924620   12.18465106140484    8.53171325117193
H        -3.99848262168345   11.96097067808618    8.49091904357790
C        -2.37907494663295   12.97826618717841    7.55027335605099
H        -2.99197668248083   13.35091249597817    6.74273323727616
C         3.35609139452543   14.81891200859072    7.83714290115724
C         4.10713785209846   15.02197715098400    9.03009324715473
C         4.71115613351629   15.09401561549702   10.07357947923848
C         5.44667217367399   15.20656613616223   11.27102158117794
C         6.22272586018182   14.13108796677954   11.70828117243581
H         6.24487380841342   13.22364206556115   11.12182005461361
C         6.94778264933135   14.24024867657993   12.87860216445835
H         7.54754625608912   13.40838516313014   13.21805424794484
C         6.90704061656962   15.41198267811092   13.61891197515040
H         7.47511975330049   15.49185691691327   14.53398166946065
C         6.13707522124897   16.48087699731656   13.18691932139690
H         6.10618724296718   17.39240895071414   13.76593522496626
C         5.40727089171891   16.38497119676683   12.01812411341040
H         4.80255457526468   17.21110342668388   11.67262595477567
C         4.22673915857678   12.62859232821164    7.69205053161865
C         3.69919447060637   11.39762326975223    8.07727099959789
H         2.63223415584852   11.24193821840658    8.00633176279957
C         4.53107928719124   10.40017384566502    8.54641943103094
H         4.11035284791663    9.45541771435815    8.85915458481186
C         5.89948789550261   10.60490031889992    8.62311883944459
H         6.54740257427152    9.82141691100366    8.98796936873496
C         6.43272695093422   11.81877255816206    8.22315247170306
H         7.50002279231087   11.98377892362922    8.27171936012274
C         5.60620531955764   12.82688576975348    7.76559627257559
H         6.02661935534382   13.77329919625104    7.45274834934640
C         2.45429215774914   17.02796574482877    7.76518139437038
C         3.56946352224214   17.76916146861518    8.17474344362027
H         4.54275062573543   17.29940987471999    8.21197192228052
C         3.43771193524169   19.10087904723667    8.51952426761137
H         4.31144582403111   19.65746688429244    8.82980402281928
C         2.20370499948124   19.72657877605615    8.46199804408658
H         2.10893044069815   20.76861875174538    8.72874807486707
C         1.09224054985728   19.00269475016289    8.05765735980534
H         0.12377141510012   19.48013076975929    8.01022093620905
C         1.21249675913939   17.67256731472002    7.71292181735604
H         0.34487235839056   17.10401654558057    7.40721430060898
C         4.71935261426598   16.17181925231132    4.83483528100884
H         5.42236307551118   15.72298157463306    4.11787361171433
H         4.84323431969345   15.69474420113885    5.80654306239350
C         4.88945199540925   17.69505485311941    4.86844000872370
H         4.60740768756969   18.08496121953356    5.84541314708537
H         5.91663651828853   17.98549989589596    4.65884688455953
C         3.90498970996103   18.18002227641322    3.79141795736846
H         4.40837326028766   18.67077324751373    2.96102148673695
H         3.18216319648299   18.87531198829090    4.21392889762174
C         3.21138716759353   16.88947388333621    3.33008617237085
H         2.14368606007698   17.01629221374672    3.15120543498722
H         3.69279101745862   16.50400308172565    2.41923339049099

