87
CSD_code = TINBIC | q = 0 | S = 0 | Stoichiometry = C28H48N6S4Zn | MND = 4
Zn        3.68161470588821    0.49948410204438   11.58723678482951
S         4.31091515305850    2.18368079503841    9.86078333189970
S        -0.44233563674532   -0.79828547674793   10.06950132397889
N         3.02140186047550    4.37709018513024    9.21650758999075
N         1.76133026200161    2.71386318946200   10.21669846222049
N         2.09408428233305   -0.26901268839655   10.99267386915466
C         2.92595288940381    3.15993283464887    9.76272658500418
C         4.27175939895253    5.01514220529468    8.85394574597250
H         4.93584303992776    4.22881541621105    8.48227085780824
C         4.92187582243151    5.67446722350675   10.07383272160347
H         5.07472821736268    4.91677189343010   10.84422563235478
H         4.24886198816217    6.43943867202181   10.47006435728596
C         6.24896862862232    6.31013183434123    9.67405163631592
H         6.70820990612840    6.78966440993996   10.54102391515049
H         6.92779383264150    5.53123418470100    9.32208208426281
C         6.03233139797832    7.33741362003477    8.56663738445030
H         5.40334533923006    8.14851846922213    8.94143113072463
H         6.98948587790297    7.76816439799017    8.26910773777774
C         5.36033694524884    6.69114872803384    7.35861822284132
H         6.01910122480479    5.92610400343618    6.94389197088361
H         5.18664235497249    7.44026804762593    6.58453796420062
C         4.03424589514734    6.04784116816996    7.75767541356568
H         3.35096492526772    6.81890443152902    8.12466892301847
H         3.57465335224528    5.56822191266060    6.89183758524314
C         0.47630303529573    3.38524354859050   10.25280667234056
H         0.63977012925543    4.46746396098442   10.34693799966359
C        -0.33008632215197    3.09171553793017    8.98446958911353
H        -0.46238458253767    2.01157070162383    8.90045221265629
H         0.21818762077611    3.43435565514866    8.10323291338210
C        -1.69572749788988    3.76804294322478    9.06106078758727
H        -2.26728061277056    3.53614054956129    8.16138110708938
H        -1.56632719724322    4.85326949733240    9.10501542898472
C        -2.45415440382050    3.29439725182833   10.29707743084106
H        -3.42423050468575    3.79148559597070   10.35028676160280
H        -2.62825857113149    2.22005042757168   10.22085853570575
C        -1.64942631932869    3.58289391270968   11.56074530805209
H        -2.18882817077217    3.22025449857262   12.43634298343500
H        -1.51429397388307    4.66224051376862   11.67287313709404
C        -0.28846156449235    2.89888110636445   11.48322672124440
H         0.29845569365965    3.09570205576591   12.38241668983649
H        -0.43195758249390    1.81999237039051   11.40572866891147
C         1.01034234209801   -0.53968631957743   10.60674866250379
H         2.19461440976580    4.95551427399105    9.18769340812713
H         1.72761013349178    1.73812323890413   10.49638971634759
S         3.05177878253239    2.18275792406003   13.31513874712182
S         7.80409550472127   -0.79748611549402   13.10988449924443
N         4.34074735350117    4.37650830943407   13.95976402172003
N         5.60126701674227    2.71347109078965   12.95983931523623
N         5.26837016287997   -0.26884349930786   12.18426879502949
C         4.43650105596374    3.15933764269917   13.41353050847163
C         3.09037454487222    5.01462764748602   14.32221404106469
H         2.42612060816089    4.22835639324420   14.69367660144672
C         2.44056004440354    5.67430934912239   13.10235205297395
H         2.28761841441393    4.91676446120591   12.33183288597579
H         3.11381358177657    6.43916515153279   12.70630218565147
C         1.11358138896131    6.31026639522857   13.50204666924093
H         0.65457478009845    6.79003808802868   12.63508085154946
H         0.43449493095031    5.53150997568312   13.85383021555161
C         1.33036828031630    7.33733422833932   14.60962728641240
H         1.95974867577299    8.14824125697708   14.23506660734228
H         0.37332532244303    7.76841791504608   14.90702391265179
C         2.00186228123238    6.69064559294729   15.81769134767818
H         1.34277149938489    5.92570441332043   16.23209255302030
H         2.17558868078138    7.43955256397890   16.59197011064323
C         3.32784781509273    6.04702866568797   15.41878228573779
H         4.01148306995541    6.81796883000310   15.05219370924873
H         3.78704978957168    5.56703550513792   16.28462292775247
C         6.88617417687427    3.38503537124457   12.92405101961827
H         6.72257275296967    4.46723571699347   12.82992080269466
C         7.69220676867474    3.09149121208983   14.19258908641282
H         7.82462860530552    2.01136090800901   14.27661720692238
H         7.14370131424122    3.43405788349920   15.07371785321386
C         9.05776601419027    3.76803413065327   14.11625675963146
H         9.62914902453094    3.53614473328139   15.01603787980081
H         8.92818872312662    4.85324353362869   14.07236374480023
C         9.81657670288036    3.29461808630863   12.88038793517000
H        10.78656742021927    3.79190797289863   12.82742803179316
H         9.99087723822567    2.22030142900578   12.95657180194512
C         9.01203812667814    3.58303398169728   11.61658357546398
H         9.55167688367144    3.22054725266889   10.74107534967239
H         8.87671352953659    4.66235903769903   11.50448270990688
C         7.65119870801203    2.89875404122185   11.69376726390809
H         7.06440207103239    3.09542622084094   10.79446106070759
H         7.79489466072391    1.81989628230785   11.77133888184369
C         6.35230951544197   -0.53933299063380   12.56985141326077
H         5.16747651198209    4.95502133611557   13.98863182880615
H         5.63515994256177    1.73779719534344   12.67995769861550

