81
CSD_code = TINBEZ | q = 0 | S = 0 | Stoichiometry = C31H45AuN2O2 | MND = 2
Au       13.06242170812695   19.44617585232825   16.39433034086231
O        12.52655563327847   19.40463897594015   18.32565284886136
O        13.42848850762585   18.42684314346319   18.88697650805506
N        14.23220985678207   18.22345789614002   14.03014474980697
N        13.82037871841111   20.28085922331806   13.60677260257387
C        13.70131793820096   19.34085563184646   14.56005855097266
C        14.67912393614872   18.45753009892073   12.75604159557118
C        14.41874939356711   19.75876851363632   12.48768359731019
C        14.29685045640026   16.98717594732959   14.72972177503703
C        15.34747240979078   16.76506927697078   15.62214298489125
C        15.38306560468096   15.55037496501853   16.29382092035676
C        14.39621747448806   14.60344431732487   16.10078311523209
C        13.35222697646110   14.85253727464354   15.23010660570146
C        13.28565222369821   16.04567854913417   14.52419618970456
C        16.42149172259524   17.79823718280927   15.86168317377635
C        17.75241411682946   17.31698462382175   15.27573350011547
C        16.55803439163038   18.11299355503338   17.35278288300175
C        12.11335928741316   16.34078113321284   13.61815005684043
C        11.80533104736941   15.17803596338051   12.67337843616871
C        10.89470370747108   16.68645623471332   14.47872716768201
C        13.39718860795608   21.62802259755200   13.76405355459876
C        12.07316188378689   21.95906487421441   13.47344108516410
C        11.67945379004269   23.27900361122046   13.64675570699884
C        12.57390913955722   24.23039633423287   14.09711872120442
C        13.87835925424460   23.87970026486529   14.38752764390732
C        14.31643928745632   22.57276488691440   14.22428562817633
C        11.07950154201402   20.91530036110218   13.02234149742897
C        10.41332019891201   21.31038682748587   11.70289208581888
C        10.03854755196413   20.69110201118017   14.12154133859822
C        15.73041044189436   22.18344266247259   14.58529992991642
C        16.75940124975236   23.10777818715047   13.93146895576487
C        15.88344123227817   22.18138133181291   16.10875768836920
C        12.72101740421481   17.35269795513990   19.47561756555645
C        11.87071038162705   17.84688518378873   20.65158693937331
C        13.82448884264753   16.40693037229975   19.95831987024031
C        11.82965411713874   16.64011556222535   18.44858238900815
H        15.13431253790950   17.69247794921564   12.16176390033372
H        14.60363025165445   20.34969683992585   11.61472180281552
H        16.18650113517074   15.34806124277995   16.98445161326337
H        14.43231276515297   13.66997618476178   16.64248659482830
H        12.57623492460095   14.11386068072553   15.10678421019338
H        16.14469927776897   18.72743615771112   15.35377754451501
H        17.66037518048078   17.13745698360357   14.20566598824026
H        18.06977021608367   16.39207489540112   15.75109609511098
H        18.52332921715179   18.06749118798738   15.43486165567791
H        16.97229548674922   17.26796746855559   17.89633332524187
H        15.59018657446676   18.35855859863801   17.78481182071548
H        17.22334178928114   18.96243441130483   17.49027053959856
H        12.34832494566848   17.21296280776486   12.99904278279331
H        11.41669052996346   14.32077918964795   13.21593641753661
H        12.70156259260080   14.87056649285048   12.13804709254344
H        11.05617413107113   15.48268623196112   11.94578676118246
H        11.11901460920027   17.53183242126251   15.12811041489524
H        10.61786630121205   15.84130797256587   15.10391468864770
H        10.04782129989005   16.94491192529006   13.84699711198993
H        10.66070375210263   23.56462738403541   13.43703343309330
H        12.24971453034852   25.25144338401272   14.23213581574739
H        14.56042830206832   24.63028698676277   14.75415205003123
H        11.60194792264632   19.96732069806890   12.85956679768266
H         9.81007803082361   22.20624416067749   11.82040089208499
H         9.76468125118174   20.50733123427042   11.36029595765634
H        11.16313047874150   21.49935743058814   10.93700755166477
H         9.46825916004169   21.59819799543468   14.30290409843542
H        10.52999319911605   20.40231244097144   15.04984941824704
H         9.34994217119607   19.90111844956258   13.83114108135807
H        15.92729068432641   21.16822819262550   14.22513483242401
H        16.69653839347671   24.11516389029147   14.33316163695472
H        16.60283712065370   23.15532328997099   12.85547547947365
H        17.76324731126835   22.73268060096431   14.11782796131203
H        15.70715243173418   23.17515060884024   16.51219470869030
H        16.88789263593159   21.86793783604160   16.38423618943460
H        15.16787550688465   21.49602532434571   16.56213677420141
H        11.21641300625233   18.63802446991567   20.29407086977077
H        12.51313749309249   18.25618388681154   21.42761284004137
H        11.27452433924102   17.03655143405420   21.06373826067563
H        14.50470325239693   16.94305135774350   20.61506277844199
H        14.38748467665941   16.03216368695941   19.10655355993762
H        13.38749470220613   15.57080026739221   20.49733844449048
H        12.42851656286569   16.30785761376240   17.60192443859517
H        11.07242616204105   17.33291858018813   18.09051998192106
H        11.34447312025970   15.78098777131584   18.90508558436706

