83
CSD_code = TINBID | q = 0 | S = 0 | Stoichiometry = C31H47AuN2O2 | MND = 2
Au        8.86319136775506   13.38449335004825   18.90385592089622
O         7.21007591863634   12.30871241938771   18.55043239240385
O         7.23864675765373   12.13348386003305   17.11757425532168
N        11.40472911465262   14.42606084165456   20.02801031650544
N        10.90236746938881   15.24091106512180   18.09458518168187
C        10.49260023773126   14.43152520949264   19.06474846612488
C        12.54460557744736   15.29812789522331   19.74733788119464
C        12.20812928146575   15.84111955678698   18.35328593808022
C        11.31565671537108   13.67010061692096   21.22532432847561
C        11.87142054339136   12.38963073981395   21.26120550923137
C        11.79266738825416   11.67444580747520   22.44817981463229
C        11.17723892246475   12.21577594332949   23.56021275786654
C        10.61156797105297   13.47469006069856   23.49944972895608
C        10.66817242167107   14.22308743879334   22.33191055563429
C        12.49804940232984   11.77057854772289   20.03438035537123
C        11.63318202296378   10.60640598451311   19.54511641945722
C        13.93336690776435   11.31533697718931   20.30699727225491
C         9.99938664145880   15.57498655178759   22.25548197492034
C         8.48164023258610   15.40171115990595   22.34891414822661
C        10.51451961820859   16.52044487995846   23.34251990082911
C        10.15809299825286   15.49940622392543   16.91279744151190
C         9.27985267601343   16.58581524586323   16.89510153878353
C         8.55991604476114   16.82989079841363   15.73393736986790
C         8.71103406069924   16.01896715040403   14.62523187534148
C         9.56905778762781   14.93719598052079   14.66703588481929
C        10.30064966643119   14.65175407162084   15.81175378138028
C         9.06489167033842   17.44148898618661   18.12145688652427
C         7.65773530232874   17.20189149754604   18.67377060714458
C         9.29603845073020   18.92385536422989   17.82179071021024
C        11.19998763647364   13.44040256678032   15.85691847691024
C        12.37081451276852   13.60325956265013   14.88321506953696
C        10.40645996707148   12.16788048672967   15.55149668384739
C         6.06123996225148   12.63477857391934   16.51445394724168
C         5.87891959429034   14.13140832068502   16.80302327096348
C         6.29323827970913   12.41372617144153   15.01700804071339
C         4.83267759910724   11.85624735315959   16.99915836142468
H        13.47586524171700   14.72495615122481   19.76777817913826
H        12.61116253931227   16.08578545908916   20.50507442271466
H        12.14181945441965   16.93265756727346   18.32463866599188
H        12.92599909159859   15.52139311375333   17.59086662117161
H        12.20822026681754   10.68031898585213   22.50261205289645
H        11.12498190751145   11.64655676981680   24.47640051066411
H        10.11308084445492   13.87516665673815   24.36845861206780
H        12.52716932713427   12.51554108481182   19.23337142944857
H        10.62449150461937   10.95356858808520   19.32565102764428
H        11.57227003273036    9.82595387340843   20.29899752176167
H        12.05770731037970   10.17981159775812   18.63892889749427
H        13.95542193995414   10.50506706629343   21.03045560038488
H        14.53086588251794   12.13757053242078   20.69748637374093
H        14.39262170437498   10.96023713794182   19.38694081756988
H        10.21774451354402   16.02663366620557   21.28313479650030
H         8.19999149803985   14.97055205527271   23.30591639369586
H         8.13212144257655   14.74105242587282   21.55667766874219
H         7.98661787828613   16.36454735050991   22.24377383609800
H        11.59904855006536   16.60395552617451   23.29775452924671
H        10.24103543261285   16.16421700893157   24.33182586292020
H        10.08517592399384   17.51105711335259   23.20867366040084
H         7.86485863963584   17.65442521914711   15.69785538913215
H         8.14238059850406   16.22124951684275   13.72965317245991
H         9.66245304340094   14.29939789659852   13.80181588504092
H         9.77554687647600   17.13986376902319   18.89695987485947
H         6.90218435398592   17.49329451806558   17.94897304580092
H         7.50743582287623   17.77991256443560   19.58310452466198
H         7.52339722668462   16.14638105527992   18.90479095881192
H         9.22664170865492   19.50473357347609   18.73913554811279
H         8.55327710880726   19.30223881722990   17.12502256014264
H        10.28205591939071   19.07924978078857   17.38712834283432
H        11.60668267529277   13.33890475553133   16.86808872999828
H        12.93736160564422   14.50690049488073   15.10415524498505
H        12.01261087224625   13.67095121171926   13.85906208479437
H        13.03974902501859   12.74845058272468   14.95582312154450
H        10.08297331966154   12.14886281012592   14.51399344736215
H         9.52507507532937   12.10235590202428   16.18610232459395
H        11.02750054572503   11.29261148977277   15.72946781682230
H         5.74628684214086   14.27542534721154   17.87227929858870
H         5.00594474802513   14.51131744830071   16.27809419092900
H         6.76104590275687   14.68305291786902   16.48173678592585
H         5.40841759150629   12.70448060901583   14.45732434135202
H         6.50883679002010   11.36481810648257   14.83070159076715
H         7.14181589275785   13.00699503859280   14.68398191288824
H         4.80317698297043   11.90193808174628   18.08493005469521
H         4.91220796902659   10.81367729992033   16.70065950361538
H         3.92024985571088   12.28251420252033   16.58966970469622

