41
CSD_code = TINDUQ | q = 0 | S = 0 | Stoichiometry = C20H8NiS12 | MND = 4
Ni       -0.00001778959511   -0.00007948054473    0.00001453129765
S         1.70859589435354   -0.00385204684519    1.34302937575664
S        -1.26727101394134    0.96063976499850    1.48035380227177
S         2.07225964793230    0.97285748336225    4.17030099336349
S        -0.75354758108209    1.88762387153660    4.30039029118460
S         2.52360194216212    1.94556238072920    7.21462128037230
S        -0.30432134666013    2.85700372765224    7.33854772287080
C         1.08716247252353    0.72829363918587    2.74861730303594
C        -0.22021452418267    1.15174296440960    2.80882774995676
C         0.79204419724013    1.71405439466081    5.12011206861884
C         0.98093134829747    2.12133486346954    6.39663930249189
C         1.98405433122904    2.64289767851031    8.73271907027404
C         0.65852386919791    3.06987317469161    8.79073995428019
C         0.15646664381813    3.63136180663546    9.95524560491287
C         0.98357866869938    3.76258427676137   11.05567954730448
C         2.30351199035149    3.33763200066300   10.99791315864900
C         2.80927064653301    2.77716477608822    9.83925218161619
H        -0.87086869141908    3.95730964279799    9.98700740585323
H         0.59586511861137    4.19853098310440   11.96296375620961
H         2.94282942854262    3.44306871930510   11.86029063328941
H         3.83281300136150    2.44292340521624    9.78170283580862
S        -1.70863395159168    0.00373126721792   -1.34298737550327
S         1.26726798151716   -0.96074114950682   -1.48032703480754
S        -2.07226853976654   -0.97292160367309   -4.17027498746387
S         0.75354547385218   -1.88766049888566   -4.30037934545354
S        -2.52360683460431   -1.94558575034934   -7.21460771097078
S         0.30432106666271   -2.85700631407240   -7.33855133007070
C        -1.08717797893823   -0.72838082906477   -2.74858333660734
C         0.22020501767576   -1.15181826868381   -2.80880009368022
C        -0.79204826446279   -1.71409441339207   -5.12009762873341
C        -0.98093459906315   -2.12136060801422   -6.39662991158426
C        -1.98405250899918   -2.64287852023032   -8.73272257251697
C        -0.65851931605803   -3.06984518271554   -8.79075135707640
C        -0.15645580395371   -3.63129920589914   -9.95527091111309
C        -0.98356294074767   -3.76249431861122  -11.05571160463689
C        -2.30349882365048   -3.33754977526562  -10.99793766826415
C        -2.80926425866158   -2.77711874039758   -9.83926238214181
H         0.87088128362630   -3.95724154992410   -9.98703814731891
H        -0.59584432636776   -4.19841348184719  -11.96300682978395
H        -2.94281215192181   -3.44296460652631  -11.86032086214492
H        -3.83280877851999   -2.44288447654722   -9.78170747954614

