91
CSD_code = TINFUS | q = 0 | S = 0 | Stoichiometry = C24H50N12P4Ru | MND = 6
Ru        0.11256385093063    5.83255129817463   -7.19448729204927
P         0.06118211310824    5.74096103968550   -4.94714967144617
P        -2.12294650755384    5.85210998438253   -7.45255672706179
P         0.42371229636110    8.08033865886873   -7.38867647238668
P         0.41165228440186    3.60320703251932   -7.53424914136568
N         1.44822950573537    5.13426032723527   -2.60631518663123
N        -0.94793352059427    4.72466416975206   -2.54966744114246
N        -0.10532945346215    7.00049256629274   -2.46155680707525
N        -4.26990775550085    6.36303508225855   -9.15562184376686
N        -4.66523081599449    6.80372969752601   -6.79705121693155
N        -4.56900290896795    4.51494298684706   -7.60256079712086
N         2.25484263635753   10.15684267418095   -7.08830068024168
N         1.09514549515036   10.07145501791484   -9.22184085442712
N        -0.08197173604921   10.81366967012038   -7.23088837212363
N         2.36987371689754    1.68229707422651   -8.03150596744363
N         0.37846550211464    1.55294913088214   -9.41752138298780
N         0.28778284696334    0.85897445037070   -7.08834350832453
C         1.57513969223674    5.14391189107480   -4.05045752410706
H         1.79968012445930    4.12666812756563   -4.40071032482050
H         2.41554214885038    5.78952972089511   -4.33933559608651
C        -1.13933405538707    4.68067246864414   -3.98519632162313
H        -2.16262196832862    5.01001227743876   -4.21025250384964
H        -1.04045244874818    3.64092506278346   -4.32230230033692
C        -0.18839651560618    7.25286908629003   -3.88585248782702
H         0.57743563024971    7.99171425582127   -4.15765373385708
H        -1.17356708895520    7.68373586143260   -4.11359042234379
C         0.37563333416470    4.25493241767327   -2.17443557273239
H         0.41196141311921    4.18398489618443   -1.08226308249529
H         0.53449321251464    3.26063906938167   -2.60181629061148
C        -1.13237249738131    6.06851475721598   -2.02951697821051
H        -1.10719673179777    6.01664335491835   -0.93609670740717
H        -2.11027520688054    6.44367007303697   -2.34561995515188
C         1.19611101230209    6.46857276613176   -2.08964199913395
H         1.97484102178758    7.14414152415381   -2.45437939692825
H         1.24265316674920    6.42479735929091   -0.99644493902827
C        -2.82239035891924    6.39936117158966   -9.08444010766206
H        -2.47642654512548    7.42496929675276   -9.27465138966667
H        -2.40103873085334    5.75437181345439   -9.86735810106371
C        -3.27120904366921    6.89706261312291   -6.41321254669214
H        -3.17674274411475    6.59224416104211   -5.36228410940410
H        -2.95550858769654    7.94547388088485   -6.48589195814478
C        -3.16261602403914    4.30952483358784   -7.32161231152140
H        -2.76777085679092    3.56816140359515   -8.02920753258509
H        -3.05972132585811    3.89981910728109   -6.30715334239814
C        -4.87052564977540    7.24253366303477   -8.16778618822158
H        -5.94918575535622    7.27741198453384   -8.35340535261913
H        -4.45565962713825    8.24778205974275   -8.28545648721209
C        -5.16524515632720    5.44659528999662   -6.66093969202453
H        -6.24598274656607    5.46305528408961   -6.83607940701320
H        -4.97505633225580    5.09530530679435   -5.64242593782913
C        -4.77511636780478    5.01616966212932   -8.95211353241458
H        -4.28647732332278    4.34205335704750   -9.66117893263195
H        -5.85241110147293    5.02322814371933   -9.14846883410407
C         2.01881730079245    8.77557128384479   -6.72365299209327
H         2.03433063026867    8.68745304425354   -5.62979074810424
H         2.82724029842870    8.14888479989041   -7.12340831134456
C         0.69974575415142    8.68065759260717   -9.12734835249564
H         1.48127538255190    8.04497303909662   -9.56350084568135
H        -0.22129189920068    8.52544219048865   -9.70459101368000
C        -0.65141877634230    9.52946423419207   -6.88103868979682
H        -1.62158287904845    9.43487678572206   -7.38756519567710
H        -0.82204955482069    9.50143407229523   -5.79736563589639
C         2.34995839824080   10.31430178156087   -8.53054173211800
H         2.66028529888573   11.34345337957692   -8.74009437896257
H         3.10685563312133    9.62529092187288   -8.91403464862418
C         0.08147569400052   10.95164536094878   -8.66889214218507
H         0.37568633232570   11.98557887017059   -8.87781628365174
H        -0.87538897476297   10.74777517841567   -9.15817730250343
C         1.20417311625598   11.02655582118617   -6.58803411231414
H         1.09380214275118   10.87140799601381   -5.51085572410481
H         1.50507436964063   12.06360708245719   -6.77054600429442
C         2.18814696545994    3.06252579617323   -7.62934775243772
H         2.68369191011883    3.72519511761954   -8.35078380520283
H         2.65831932723957    3.22036793466826   -6.64979649659007
C        -0.05314439355951    2.91845770041066   -9.20309749518451
H        -1.14081662750696    2.97416224516133   -9.33850594989559
H         0.41328211907490    3.57106401351569   -9.95326260571709
C        -0.16424102397209    2.12154791740583   -6.54267394443747
H         0.22686370915843    2.21557431655103   -5.52028902475398
H        -1.26066221483796    2.11338489285867   -6.49463245175617
C         1.82678426111374    1.44025765345037   -9.35725090655429
H         2.10090125959329    0.42323484465626   -9.65701076925035
H         2.26813665121957    2.15306934756676  -10.05851991435723
C        -0.20450325959611    0.64998992610232   -8.43997927773089
H        -1.29176183803157    0.77022064676834   -8.44540101701051
H         0.04272607592521   -0.37544430422767   -8.73434291682307
C         1.73886627850058    0.76864158780079   -7.09604254234762
H         2.01207186997128   -0.25327835069257   -7.37929968357180
H         2.11445581300179    0.97175857200255   -6.08899888418594
H         1.66071588259418    5.84622182505495   -7.12217453255106
H         0.25936145139648    5.86313601888102   -8.73741065400673

