91
CSD_code = TINFOM | q = 0 | S = 0 | Stoichiometry = C24H48Cl2N12P4Ru | MND = 6
Ru       -0.20793772377254   -9.02510897467039  -11.67118732623778
Cl       -1.05311919624607   -8.38556607464078  -13.82364818326322
Cl        0.63768259054135   -9.66467629994073   -9.51977318282190
P        -0.03893763940414   -6.72474930321360  -11.52327981273661
P         2.04297484250416   -9.23672454167270  -12.14984975904390
P        -0.67354696280945  -11.10085400398247  -12.57469473422463
P        -2.16311882908092   -9.03709406339322  -10.43846051672536
N         0.56017254828903   -4.30524760988708  -10.33376153912601
N         0.88434259241755   -4.41203892966029  -12.74142785220412
N        -1.35632210515696   -4.30522644836204  -11.83070787863541
N         4.62120638836320   -8.53162542263515  -11.41502815377828
N         4.28162743237889  -10.86224980147114  -11.97515331944745
N         4.30333706558668   -9.18487314489196  -13.73580948903267
N        -0.82505654533685  -13.85808807371978  -12.62902246128858
N        -0.32949204340040  -12.78137982066070  -14.75238949835345
N        -2.57026483496467  -12.67617578183819  -13.84178707702676
N        -4.87418978029479   -8.74801826456289   -9.99690225742149
N        -3.42699919501419   -8.14720282603324   -8.13723017211405
N        -3.76658607188631  -10.47827744081029   -8.69579363412515
C         0.59555115873735   -5.73135240610235  -10.07981120032160
H        -0.00880180903787   -5.95377995753918   -9.19298880685401
H         1.62604120411092   -6.03175142982906   -9.85827952218902
C         0.94529962320019   -5.85394971837623  -12.84516072045971
H         1.99685342402192   -6.15930096305610  -12.79025261307034
H         0.54242987722481   -6.16498112733226  -13.81724446332404
C        -1.58999335711963   -5.73306470391883  -11.81494713660086
H        -2.00458641314182   -6.04344936979598  -12.78231530656953
H        -2.32694126445179   -5.95322387112318  -11.03362545295886
C        -0.79333451164369   -3.83449110192426  -10.57612479127305
H        -1.43547000819868   -4.15527879767958   -9.75064053064106
H        -0.77120891900233   -2.74026862986094  -10.60468605474507
C         1.39490420505523   -3.93863281004041  -11.46560801647905
H         2.40148943338926   -4.33779053482851  -11.31027323811391
H         1.44837787102591   -2.84589880733942  -11.50704108254076
C        -0.47203394272510   -3.92303693259526  -12.91789869297551
H        -0.43870416961288   -2.82993054286040  -12.96410857272472
H        -0.87232956424706   -4.31247246285742  -13.85712549418192
C         3.23498189374486   -8.23413471398913  -11.12586142607671
H         3.06863851401097   -7.16430004917402  -11.29842796400352
H         3.02966504224366   -8.45269021463118  -10.07033048752375
C         2.85090848818138  -10.87048390559172  -11.75930412284821
H         2.64429748330309  -11.09838728349605  -10.70600279290624
H         2.41322169064473  -11.66201508911086  -12.37886903447174
C         2.87294614082333   -8.96188633808662  -13.79559440629905
H         2.43455829305893   -9.63645286120379  -14.53984386026387
H         2.68263362149854   -7.93585047326113  -14.13054404917046
C         4.94596276467951   -9.91197637302129  -11.10017340161273
H         4.66025977459428  -10.11893567145581  -10.06595821636128
H         6.02710753894177  -10.04306225370440  -11.21019658999943
C         4.61999847643205  -10.55097860928299  -13.35400395115977
H         5.69792070504373  -10.69628857061479  -13.47891527019246
H         4.08956329873636  -11.23889098288259  -14.01889098723240
C         4.95191835680619   -8.27457314938018  -12.80685744178935
H         6.03474918859477   -8.38640930457561  -12.92350860741513
H         4.67167896424777   -7.24784236325305  -13.05973907549181
C        -0.42447995769642  -12.76279186501106  -11.76914049304901
H         0.63205141507211  -12.88216233214751  -11.50326813208183
H        -1.00348837523362  -12.80515334457984  -10.83952453072244
C         0.12329610339769  -11.52009721644492  -14.20682001396128
H        -0.11790611662172  -10.71319734179318  -14.91019135474731
H         1.21244625887328  -11.56620511535544  -14.09012556037581
C        -2.41199879413643  -11.40110976287545  -13.17635210244051
H        -3.11108545546707  -11.36335770864699  -12.33259631375561
H        -2.66503638020311  -10.59359533388589  -13.87486385966618
C        -2.23667418824772  -13.78856917413174  -12.96783297955107
H        -2.82099845661855  -13.71012649087588  -12.04637971203976
H        -2.50742300698710  -14.71616958387028  -13.48250466050749
C        -0.04826322509909  -13.89115895955971  -13.85693908123168
H        -0.28773505715062  -14.82031993180814  -14.38416606930377
H         1.01636026899308  -13.88985235585559  -13.60545556414749
C        -1.75307482819434  -12.75582363902654  -15.04007898728955
H        -2.01189290966071  -13.67766242543990  -15.57050987417013
H        -1.97251277794297  -11.89720844137477  -15.67934804616616
C        -2.21490793325904   -7.97400979760490   -8.90823173311083
H        -1.34969427037614   -8.24254173847956   -8.28909269030162
H        -2.13023210593771   -6.91645295451533   -9.18466688625096
C        -3.88014361153284   -8.64182385005054  -11.04571688199658
H        -3.89517537990935   -7.62477239614388  -11.45380881616330
H        -4.14266781740087   -9.32616619305340  -11.86055554998305
C        -2.59919719603780  -10.61120168897227   -9.54034373638485
H        -2.78594245579481  -11.41439033590152  -10.26288552023515
H        -1.73557778236264  -10.89096985898092   -8.92396901220556
C        -4.94470368384747  -10.09510209161733   -9.45592107710422
H        -5.08843021075262  -10.80232243021515  -10.27801020148934
H        -5.81017711524889  -10.14662347975787   -8.78737424970045
C        -3.55040718629158   -9.50590983250715   -7.63853940177431
H        -4.40658864019395   -9.54434771123317   -6.95762184351887
H        -2.64170583215467   -9.76926046718905   -7.09175622419588
C        -4.61283871583289   -7.81840752720202   -8.91069871485375
H        -4.50618733851399   -6.81041574596485   -9.32209607810075
H        -5.47373284751357   -7.83703167809749   -8.23455381896024

