64
CSD_code = TINKIM | q = 0 | S = 0 | Stoichiometry = C18H29B10IrN2O2S2 | MND = 8
O         4.53853355610607   22.83402311071425   10.95235154645995
Ir       -0.44261788585438   18.06213056392356   10.20168806764560
S         1.56125914019638   17.21528928417075    9.18723165360901
S         0.09725136062497   16.95598157156501   12.25794143604207
C         2.18929834416463   15.99168152669602   10.40507247964948
C         1.43962534808093   15.84137597400326   11.80710861367709
N         0.84381816570410   19.51945314020950   10.80008520676118
H         0.56349305638349   20.26943731803648   11.41825791229853
C         2.59278261517920   18.64140445656067    9.45031524655567
C         2.07129507353982   19.64620609056246   10.30421918817910
B         3.05167581591273   16.47195019801049   11.80069962794186
H         3.15426513692305   17.62465669789098   11.98928690351374
B         1.36094477263375   14.19223495998799   12.27465222896968
H         0.42203132715790   13.85996090320021   12.89436068902441
B         1.14084256523176   14.64426845018346   10.59730665666599
H         0.10537949495372   14.72127127659852   10.05154530351437
B         3.04946773812639   13.69338498959147   12.49051610386971
H         3.34636183144149   12.86944708332557   13.27315136139548
C         4.15121324330516   20.82724096476207    9.94868488014545
B         2.18598204277018   13.28451515653370   10.97730778710821
H         1.87429481790291   12.18910634063068   10.69047758625010
C         2.91691147717208   20.74753975471235   10.55887894976242
H         2.59754722386689   21.53189260651876   11.22775801234553
B         2.67986701644722   14.47871515130784    9.76017193174823
H         2.65892178476653   14.37454143181293    8.58971850109482
B         3.87486388010745   13.86744211382742   10.91766229848454
H         4.75748250986626   13.17215395598304   10.57532466090068
C         4.61983429371175   19.85083456307703    9.06640644180119
H         5.58370295138865   19.96636749515463    8.60160601814437
B         3.84712873386571   15.59279925583676   10.49387909921012
H         4.59049197532305   16.17907044998840    9.80088600461234
B         4.09761901909389   15.11386551689489   12.18349944496569
H         5.11944911891572   15.28235205396913   12.73640249701610
N         4.98015526836377   21.97251626326491   10.21955155887180
O         6.07390471416112   22.01744464118509    9.69619302724339
C         3.81935960609721   18.75231964313202    8.82406227929136
H         4.14691113305808   17.97486401941130    8.15193216677907
C        -2.47111952772837   17.13618904441069   10.07220108897609
C        -1.92116165847111   17.18651135442883    8.77640207153849
C        -1.73959778918674   18.57955908268154    8.41272289770747
C        -2.56779287966697   18.49633860557870   10.55982575455286
C        -2.19370850263423   19.37631718928427    9.48659570871139
B         2.52769047303275   15.30974519547140   13.01127299985328
H         2.33954596315090   15.68868561820558   14.10469436562375
C        -2.98849808113814   15.94211812197336   10.80574238730108
H        -2.73914732481023   15.02056676934992   10.28692971968887
H        -4.07341973892052   16.00755347502795   10.89401804128408
H        -2.56996999484324   15.89354177379189   11.81025025805410
C        -1.74683671415350   16.04733631879397    7.82439222949064
H        -2.58365534625801   16.02545693328396    7.12431635118743
H        -1.71534370485230   15.09444684575699    8.34644054240511
H        -0.82928869359548   16.15060543623320    7.24746754150797
C        -1.35331166549873   19.06606860528218    7.05485336085318
H        -0.87916461171501   20.04377793486582    7.10887774139546
H        -2.24157113140490   19.15601774238743    6.42660005188418
H        -0.66679228504772   18.37570987292109    6.56970142565593
C        -2.32215404110582   20.86339467947303    9.48785993766098
H        -3.28750410201448   21.14755335041367    9.06577758420887
H        -1.54187139931911   21.32668693108806    8.88817970789396
H        -2.26457439489449   21.26141608829365   10.49771770193475
C        -3.27158485474796   18.88755263814898   11.81883162438744
H        -4.35110419693143   18.86846280625721   11.65798756394790
H        -2.99136711194602   19.88936931113092   12.13395595617240
H        -3.03444495196674   18.19387930222457   12.62209201454747

