104
CSD_code = TINREN | q = 0 | S = 0 | Stoichiometry = C54H45ClCuP3 | MND = 4
Cu        5.52241907184849    3.42943828881788   12.26925188150749
Cl        7.40581090616697    2.96597954585215   13.50621757570582
P         5.76780447051199    2.02845443947665   10.50663953428252
P         5.74434567806572    5.63793681451421   11.81965172885006
P         3.86003777911283    2.90093546957968   13.71330547654521
C         7.28030485628535    2.54152454503806    9.64044679833051
C         6.03416236458221    0.25592181384338   10.81972171618852
C         4.53261012286970    2.01748134978016    9.16340690865504
C         7.29938408078850    6.23031495027658   11.08230551045198
C         5.67145014115590    6.51259781621455   13.41091060684702
C         4.47642841159569    6.50749908114906   10.83644860282635
C         3.99716782887330    1.12512780872716   14.07309600673434
C         2.11640046599996    3.05716768276450   13.19857686255526
C         3.86399962369403    3.66886058317194   15.36286961414581
C         8.49749021373823    1.89322811091479    9.81228807434256
C         9.63932143601453    2.40540187696636    9.22203058451555
C         9.57751499450692    3.56149739846944    8.46280533671766
C         8.36832491746621    4.21888415350494    8.30040119868168
C         7.22793712598153    3.72061977857427    8.89724215672769
C         6.76347085756287   -0.06880743519312   11.96227290949997
C         6.99202643876590   -1.39287877065328   12.28402653238378
C         6.48348847035272   -2.39952609406887   11.47926892891122
C         5.74210636860879   -2.07878149432002   10.35404509859361
C         5.51246362807648   -0.75578262790967   10.02113311299822
C         4.84210554364552    1.81728841736944    7.82191524839962
C         3.83639271671796    1.84309767420668    6.87273641204530
C         2.52134488868835    2.06833288984462    7.24998503635050
C         2.20723760142794    2.26838998714205    8.58437005562981
C         3.21081116875093    2.24442612562034    9.53474295545645
C         8.45841063267908    5.55252901275760   11.45629250492482
C         9.67939397259501    5.92629254704580   10.92845699324782
C         9.75080388901322    6.96563266622698   10.01520420414507
C         8.59727923739776    7.62723779886777    9.62735009146537
C         7.37098849319632    7.26325464664980   10.15429170886920
C         4.42470169652072    6.65389810966779   14.01991521010497
C         4.32342577766007    7.21819465547648   15.27555719501764
C         5.46655039796480    7.61887674196989   15.94867363395364
C         6.70877557551866    7.45325065282705   15.36022242169779
C         6.81655971243596    6.90139199483484   14.09617629054078
C         3.84453183297238    5.76565366714471    9.84326831635738
C         2.86576364155392    6.33792870548934    9.05222574636070
C         2.50878826654605    7.66125869644730    9.25300901420667
C         3.13234192690721    8.40584717045470   10.24267429264435
C         4.11262928399206    7.83580173731190   11.03455453526007
C         4.61870924328290    0.64115214292700   15.21809082308462
C         4.79770903898533   -0.72116662042309   15.38044865555019
C         4.36369535751394   -1.60577103706701   14.40784943492798
C         3.75749726602464   -1.12645736532046   13.25745194622313
C         3.58769029485685    0.23213353263605   13.08309958003754
C         1.09795608035495    2.21577746529322   13.63528213241195
C        -0.19381316841922    2.40516711145941   13.17887303056764
C        -0.47995826352748    3.42798868111721   12.28745952782574
C         0.53023869213714    4.26801113561532   11.84826834462019
C         1.82247713871491    4.07983398291216   12.30212765634863
C         2.71170427145841    4.05171851243489   16.04012465305311
C         2.81447708844444    4.65151203028018   17.28251601747878
C         4.05725215741335    4.87648498242009   17.85118698266793
C         5.20711628339923    4.51032190022529   17.17056592019497
C         5.11448637159308    3.91513623691330   15.92714893626994
H         8.55062989184193    0.99509953815139   10.41056258551648
H        10.58380120558398    1.89890365981632    9.35883581968514
H        10.47168214320035    3.95667458857803    8.00353738025674
H         8.31815179957233    5.12887256483663    7.72021894270351
H         6.28605152544129    4.24438649730230    8.78797430121799
H         7.13842248763501    0.72321410482001   12.59751222404784
H         7.56083350763657   -1.63905511881314   13.16846245865640
H         6.65823501376751   -3.43548055445392   11.73172919406072
H         5.33889755699549   -2.86429923866689    9.73029055501087
H         4.92893801543914   -0.51302955158770    9.14388525570804
H         5.86781397322958    1.64376385495260    7.52692701174691
H         4.07857461376042    1.68614484332490    5.83145202705950
H         1.74267003758682    2.09020519214954    6.50157796312565
H         1.18517213857406    2.44890417515483    8.88530515569060
H         2.98160459139233    2.41667082492046   10.57991583643133
H         8.39138903578637    4.72646823289775   12.15250282486696
H        10.57474989916627    5.39993528512333   11.22451735651024
H        10.70441823129623    7.25684650894734    9.59891958750564
H         8.65183826341228    8.43288814005287    8.90856931969968
H         6.47454221372833    7.78093688343306    9.84236775301022
H         3.53322268574061    6.32260594727520   13.50182221674835
H         3.35329899085114    7.33306942735904   15.73685648220267
H         5.38737649493545    8.05231601122672   16.93478053157102
H         7.60155028528059    7.75355869553856   15.88937152667846
H         7.78787995529931    6.76667557982002   13.64261629000601
H         4.12140242200242    4.72662553713092    9.70802162408045
H         2.38102070438224    5.74965198312637    8.28623952023315
H         1.74256384642791    8.11400216576705    8.64076865010105
H         2.85238679585324    9.43805815086660   10.39679474159300
H         4.59652055666613    8.41622212577433   11.80803595112253
H         4.96509269568646    1.32928301328714   15.97563053294690
H         5.28142966617296   -1.09327380723010   16.27198846248951
H         4.50397052417395   -2.66848183522989   14.54040154069952
H         3.42982646379935   -1.81245157502696   12.48985508953625
H         3.13175594074922    0.60935667697295   12.17586765757731
H         1.32129209969227    1.41616440084112   14.32814028975642
H        -0.98372566583256    1.75170934967965   13.52034978210190
H        -1.49127502207770    3.56693890405317   11.93412666794000
H         0.31570702940441    5.06435290179003   11.14995802875627
H         2.62565077192454    4.71871611294970   11.95376973481554
H         1.73843015628452    3.88403531127976   15.60020451437626
H         1.91753724509269    4.94483762493049   17.80989366908671
H         4.12821799765684    5.34404507242143   18.82268325026129
H         6.17834541723860    4.69504411214221   17.60528315480512
H         6.00836143581599    3.64596600905023   15.37929827199473

