46
CSD_code = TINSEP | q = 0 | S = 0 | Stoichiometry = C18H20N2O5Pt | MND = 4
Pt        1.15530792984036   11.95390709942380   14.47527056234724
N         2.71351075815166   12.14625821267527   13.20174172230582
N         2.16666947611778   11.38361323495516   16.10842960141465
O         0.00149518357274   12.54962552316853   12.92487350044092
O        -0.50109226364814   11.78335496877641   15.60733291305026
O        -2.46496587643810   12.65277620014860   16.08655714436713
O        -1.42119459756179   14.08526520246104   12.24900993801289
O        -0.42972494786642   16.66106851802292   13.58261091420913
H        -0.71690195084711   16.06877236937171   12.86967762360133
C         3.49543964018974   13.22602101490785   13.29845410029539
H         3.42073275214559   13.80139826878674   14.21264483020652
C         4.36321926422022   13.62237176471329   12.30190784686471
H         4.96127127213747   14.51014374650696   12.42648428883105
C         4.43121738955411   12.86237881098780   11.14301681963104
H         5.08749477926669   13.14377516348564   10.33446961287315
C         3.63304678942920   11.73784733793113   11.04860816277853
H         3.65730931210352   11.12117352466814   10.16404179685927
C         2.77373110516162   11.39889483709148   12.08898815851796
C         1.91213333154393   10.18393719038401   12.00233308841933
H         2.40745781088735    9.34187753124299   12.48755403556924
H         1.73017100576287    9.91969572170996   10.96451768135573
H         0.95401735151335   10.36860040311990   12.49397242060922
C         2.75759179387841   12.30863397385369   16.86941527366228
H         2.88025803907111   13.29260475860873   16.43431907825457
C         3.19320175034828   12.05783135455395   18.15477319803994
H         3.65866904309726   12.84070092075863   18.73098642725554
C         3.00655568368160   10.78811308462930   18.68195973236565
H         3.32580003758881   10.55367618270853   19.68538542711170
C         2.39352085065876    9.83155129031374   17.89335054652064
H         2.22295527004917    8.83610357420229   18.27165805811378
C         1.97325959912451   10.15309994365974   16.60785339780548
C         1.27860258194955    9.16455169810443   15.73783057574218
H         0.26484083308622    9.52300628937311   15.54248001703150
H         1.22319584706933    8.19033995541980   16.21453025137632
H         1.79699280023342    9.07243670099358   14.78377172882934
C        -1.40423720118196   12.70232601825143   15.49994491786190
C        -1.05816953411617   13.90663231017276   14.61402874391896
C        -1.97083825980316   15.13273505254253   14.75642312395998
H        -2.64152145995624   15.30780547001545   13.91719399302867
H        -2.53513358388525   15.10904588244736   15.68536546349208
C        -0.72062637720440   16.02758174582087   14.79446507831542
H        -0.68298642697573   16.80293004711578   15.56396342599889
C         0.14658383377805   14.77163070291267   15.06852321545706
H         0.38073375788846   14.64718556037021   16.12631606214059
H         1.05458163150911   14.71087783307813   14.45980494761950
C        -0.84727602521072   13.48984300531346   13.14256055352736

