85
CSD_code = TINTOZ | q = 0 | S = 0 | Stoichiometry = C42H35ClNP3PtS2 | MND = 4
Pt        0.64789533395188    5.32040185890085    3.10926432965700
Cl       -1.56155695856306    5.75508699419224    3.54706631721833
S         2.94091463318710    4.68186978051983    2.64554414023646
P         2.89683374621534    6.40942205111551    1.61425661285483
C         4.27104027870364    6.69147265375006    6.22507885288662
C         5.34402957076715    6.08329034969363    6.84869792618440
C         6.44315887698169    5.68550938360774    6.10371655625595
C         6.47279729865371    5.89512475553282    4.73453984232938
C         5.40378609396591    6.50683990320115    4.10656080530177
C         4.30452892917181    6.90154804277082    4.85286171173801
C         4.21093701891457   10.12361541903454    4.23025317924092
C         4.37971189199541   11.44549765697464    4.59434889781238
C         3.39071998052654   12.09555823419736    5.31679308455590
C         2.23218108359409   11.42633606902068    5.67296382465952
C         2.05602750719620   10.10255762969224    5.30854548585254
C         3.04620656236269    9.45613917627160    4.58664557615545
N         3.08035041132218    7.78221765805571    2.45457627359451
P         2.88196535605941    7.73227953747462    4.06652100093580
C         4.73120908161244    7.58931647778811   -0.06277571265502
C         5.74988244962851    7.60594560291300   -0.99706409360384
C         6.27747945395605    6.41298012430735   -1.46646861579200
C         5.79104274764383    5.20266964395007   -0.99961955569654
C         4.77402165452596    5.17974287339732   -0.06183484594119
C         4.24639683947690    6.37519511823740    0.40418972766203
C         1.29297544682266    5.92332730935707   -0.63433903491691
C         0.16691766950722    6.11095365260001   -1.41649337120679
C        -0.85168880097753    6.94383910729468   -0.98160494988052
C        -0.74789465432086    7.60306600396612    0.23476834539957
C         0.37798033438311    7.42916880787000    1.01904082607208
C         1.39629032256085    6.58393902229451    0.58273228331870
S         1.15699006465645    6.99052172014845    4.76448106442879
P        -0.09419013370274    3.42442692639935    2.05045028817176
C         2.01653848894367    2.27014172165739    0.66251476779387
C         2.70288434312146    1.86735137581305   -0.46759404430271
C         2.11726245909924    1.98580442940308   -1.71808461749241
C         0.83568071565343    2.49779790359125   -1.83192619534198
C         0.14590657654680    2.90979772277238   -0.70528532197205
C         0.73307780520236    2.80229440496001    0.55102450511539
C        -2.41894225411981    4.30223452454048    0.86145490748869
C        -3.74797457606255    4.23895310016310    0.49168343271715
C        -4.52728475089773    3.16423361369834    0.89065505327260
C        -3.97415910946678    2.15858538924578    1.66398145523567
C        -2.64129063184249    2.21407216639542    2.03526200140183
C        -1.85643199903562    3.28407940583486    1.62746415682516
C         0.25592741424021    0.76462088161235    2.91593013837713
C         0.45902919090766   -0.19249809154404    3.89315041195476
C         0.60329004614409    0.18447964482918    5.21945644925000
C         0.54481227749607    1.52262519672822    5.57307343035203
C         0.34166391153806    2.48490380113738    4.60075295451664
C         0.19703165616622    2.11070504402322    3.26812397826816
H         3.39819775576548    6.99600631023694    6.78725725865489
H         5.32273503001428    5.91476225911522    7.91540921197175
H         7.27858696262205    5.20548779305457    6.59212712550861
H         7.32784344579794    5.57961851194805    4.15459168939828
H         5.41074140638796    6.67003699056305    3.03505275838160
H         4.96885319362047    9.59772865383902    3.66657278078139
H         5.28203097804888   11.97140089988617    4.31817845308195
H         3.52542808826774   13.12866388652960    5.60220311286868
H         1.46365326516038   11.93554157892134    6.23530650258095
H         1.15538573773757    9.56809074084401    5.57677304058871
H         4.30670885426344    8.50427537900476    0.32520790796360
H         6.13409009279515    8.54775074404156   -1.36073187301385
H         7.07326127886264    6.42728758721454   -2.19684196116086
H         6.20648728478019    4.27490497020449   -1.36516424805858
H         4.39082516647020    4.24306996527888    0.31948678267738
H         2.09525784311790    5.27726049682061   -0.96572605632748
H         0.08718079313783    5.60703571827478   -2.36851778146119
H        -1.72906658372777    7.08469926758112   -1.59612480316816
H        -1.54285898153848    8.24970859917692    0.57372318752441
H         0.49449484716959    7.98292797297409    1.94407957249243
H         2.47137924143259    2.17754771170308    1.63826501011061
H         3.69849497346844    1.45840841783977   -0.37280618175846
H         2.65668195016638    1.67487502180881   -2.60075024888379
H         0.37072444701647    2.57885616362233   -2.80386021287409
H        -0.85334072292087    3.30948635369438   -0.80010845887582
H        -1.80930308432957    5.15132188803924    0.58509349390078
H        -4.18128253787022    5.03313304787341   -0.09826929858781
H        -5.56878472879987    3.11752481865710    0.60838755911450
H        -4.58392725289773    1.32748541016166    1.98716209392131
H        -2.21990366984391    1.43230849109675    2.65031706371860
H         0.14789283325010    0.47351782692065    1.87961243963780
H         0.50546400431577   -1.23676202115134    3.61992669672805
H         0.76393058095109   -0.56818615130097    5.97728287900684
H         0.65943491501419    1.81570094643380    6.60581215209500
H         0.29234093797340    3.54068196970099    4.86523811520681

