49
CSD_code = TIPCUR | q = 0 | S = 0 | Stoichiometry = C23H17N7NiO | MND = 4
Ni        6.73372658441407   13.48854440311280    9.42203081629601
N         8.54293641487727   13.88147957469390    9.90484640559965
N         7.45526827177551   12.10733583722805    8.38245778550352
N         6.09709449191822   14.80396867958336   10.52333560207056
N         5.01912355289046   15.23313737295827   10.71945843386533
N         4.06379787374039   15.75750048797646   11.02718371885753
N        10.32904509372205   10.05360265560444    9.23450933526294
N         9.86048472884451   13.08959438894572    6.73229567532989
O         5.01921192609411   13.13071283116169    8.90461102711535
C         9.15285161227800   10.64208904520072    9.39798508397161
C         8.22567198060141   10.21862284155649   10.34459532653120
H         7.28952133287013   10.74558542745834   10.47516624571499
C         8.53804801720081    9.11695182086695   11.12265121430692
H         7.84031428076153    8.76138449974261   11.86618792389353
C         9.75866123881211    8.48650857425573   10.93618910375723
H        10.03787167296405    7.62392606864411   11.52004128690470
C        10.61963018092064    9.00293906173554    9.98115350820483
H        11.59024604845680    8.56102890350244    9.79748720219779
C         9.81269013704339   10.72278386562184    6.47488248426647
H         9.59800061836131    9.75012111505741    6.88814012735916
C        10.36281977778578   10.84355372043082    5.20850748737183
H        10.55988525150078    9.96169002423203    4.61618601721007
C        10.65170558631669   12.10509362071672    4.71524679319561
H        11.07552285168443   12.23815168805006    3.73247224537581
C        10.38260776999524   13.19733521228197    5.52599996612070
H        10.59039181413738   14.20804920812292    5.20068883606376
C         9.57694357742662   11.88297363594696    7.20327871921763
C         8.89172997642544   11.88904593271465    8.56204157824892
C         9.43760798481813   13.03524621776992    9.38724464881166
C        10.80259501128390   13.15949998253036    9.60627788625895
H        11.47178528014302   12.42977423140926    9.17830642000426
C        11.26417680793070   14.21393922596490   10.37014347818996
H        12.32023944193666   14.34084038701227   10.55315333134269
C        10.33658590719729   15.10256166865661   10.89553631432699
H        10.64853139439253   15.94228288299191   11.49560070357629
C         8.99382536690424   14.89929128804531   10.64449405907129
H         8.23920733787803   15.56283066260536   11.04583844621975
C         6.80942621382023   11.29138513616767    7.61001064661359
H         7.35974376858616   10.50206533361580    7.09460090493011
C         5.41525829656043   11.32651684224096    7.37409364891671
C         4.83493515059312   10.41124143215040    6.47336255382843
H         5.48170501820660    9.70366354011434    5.97198067191389
C         3.49011428981885   10.41347210811982    6.22963412167719
H         3.05587521967588    9.70926723412290    5.53674834619031
C         2.67098278898117   11.34193493040911    6.88813461280811
H         1.60833451287003   11.34205268740282    6.69271194987648
C         3.19621041023485   12.24223978086862    7.77142144800215
H         2.57515468114651   12.96011305993571    8.28464609819496
C         4.58770245320464   12.27347087045971    8.05382975943579

