65
CSD_code = TIPCEC | q = 0 | S = 0 | Stoichiometry = C29H24O9P2W | MND = 6
W        12.05915624109604    9.67684238571719   23.79224503705500
P        13.14859606830673    9.02760738429411   25.90411228975577
P        15.84548867234975    7.85823385334301   26.26338611102691
O        14.57872205632049    8.40149408564275   25.38409576440364
O        15.48601315391209    6.98659411715821   27.37098236756038
O        14.82099639892305   10.94330098649332   23.01604886893358
O        10.84519306219209   10.35445291492225   20.99040492627714
O        10.93141884077953   12.42136421526044   24.82078173424111
O         9.39485307139730    8.17336813121270   24.50495352458860
O        13.26000425405715    6.94070324760288   22.83350598553465
C        12.50994967939770    7.64024417320622   26.84444504132308
H        13.15076806040176    6.76579537605404   26.82674530942037
C        11.28390504713941    7.55879385696517   27.38874753644018
C        10.25558762114663    8.59376400101660   27.46141632009304
C        10.31923395388866    9.94516112687805   27.18291589418985
H        11.25765955175693   10.41848875053317   26.92789778643802
C         9.15927594066716   10.70237026050913   27.28819124022050
H         9.19272400995807   11.75873629322231   27.06733388168506
C         7.96325321472662   10.11928302354089   27.67503842442392
H         7.07253369235484   10.72652376514351   27.74096671558197
C         7.89776648604670    8.76949163600767   27.99657292980360
H         6.96660344127096    8.32715733314094   28.31745701476097
C         9.04669948144939    8.01021559858359   27.89670705361346
C         9.30182772450781    6.60530811455717   28.18772690794192
C         8.47339054201945    5.60459043218392   28.65730776151318
H         7.43045631364394    5.79676937940665   28.85989438152385
C         9.01152961250741    4.34117168131311   28.86401904778502
H         8.37928004431141    3.54679389696364   29.23278256458702
C        10.34924524546168    4.08448934427371   28.60597806734837
H        10.74451001926542    3.09460986369769   28.77997937554657
C        11.18745966543284    5.08217556345011   28.12614186679779
H        12.22939187490581    4.87557182066777   27.93177937457463
C        10.66048784744386    6.34220787511779   27.91738860269933
O        16.65203099511684    9.13693490590898   26.68602972858052
C        17.08292296078520   10.12212694644573   25.74555912293455
H        16.37016445133350   10.18047899404932   24.91939332707865
H        17.07016669908344   11.06682003901926   26.29786496512014
C        18.47541057991561    9.81515540965706   25.22551926812442
H        18.79524721003165   10.60677423569908   24.55296213374207
H        18.46941436808009    8.86917671764592   24.69195593977925
H        19.17467323150810    9.74528689397374   26.05468985409993
O        16.70835774118709    7.20871239615771   25.09846472637930
C        16.34982491084228    5.90011581997713   24.65017392723636
H        15.92642699425324    5.34344295632119   25.49194414927659
H        15.58996998057051    5.99526284425417   23.86810436982353
C        17.59319686401600    5.21261199069683   24.11645292371115
H        18.01558251294957    5.78779050029768   23.29674307741734
H        17.33546690281169    4.22001618034013   23.75822606656549
H        18.33783186592830    5.12651872255602   24.90329036217555
C        13.77765278422624   10.18326431375241   27.16996216217596
C        14.01533387558320   11.50009276148102   26.79713322739055
H        13.74944495780199   11.82807624856558   25.79839456262160
C        14.58596892518633   12.38107525646103   27.69838969248035
H        14.77107752024611   13.40513215152649   27.40878246190930
C        14.91984573172763   11.94447018869968   28.97029748355207
H        15.36883292626767   12.63053812741914   29.67325760974526
C        14.67851141420217   10.63177641086698   29.34271031560574
H        14.94038589325818   10.29460874640663   30.33420328752875
C        14.10502381166744    9.74667077695234   28.44724799754583
H        13.91930882535551    8.72139101141375   28.73036213135040
C        13.79461348168477   10.51936690128868   23.28988429430282
C        11.28037847190594   10.11139299566670   22.01932312064594
C        11.35109623514181   11.41872925377796   24.46638400377348
C        10.35638241902789    8.74851443875672   24.28820684967132
C        12.79197356926930    7.93150037588445   23.15413714997446

