109
CSD_code = TIPDIG | q = 0 | S = 0 | Stoichiometry = C52H44N4NiO8 | MND = 4
Ni       16.39463633088099   -0.00003314438054    8.83157574560404
O        12.56928761306389    3.71818705860738    8.31863527203019
N        15.70971367118348    0.67832056193926    7.11141901227717
N        14.62869688284886    0.30118733760894    9.65419990230068
O        18.39839171003588    2.96284114744981    4.85184310733853
O        18.14655595605998   -1.61774493599813    4.02707227872144
O        11.72895362883763   -0.36388736845952    6.23274737113428
C        13.50415810462158    0.78850331985598    9.04969927206255
C        12.08083190423120    1.70386474191800    7.25095342223047
C        13.38672277268139    1.19146491052882    7.72881572752791
C        14.44750476384749    1.12592731398281    6.83933884726859
C        12.87450635664139    0.35482580125202   11.14759225498951
H        12.34999207950154    0.22153132821235   12.07390614313023
C        16.39440821900442    0.80058532133716    5.93507564564477
C        18.30235531464128    0.68348437003312    4.36962017481564
C        17.72344355048713    0.47289180646774    5.71724763478896
C        14.25777989588588    0.03999228063747   10.94327133437349
C        12.40600903684446    0.82111299264310    9.97010518506527
H        11.41555363703349    1.15232985853354    9.72453580356594
C        14.33863361170723    1.53866651193635    5.47115816111411
H        13.44721898400721    1.93353801199571    5.02349545196907
C        11.68233506865928    3.00429371562801    7.57224042285550
C        15.54700238187006    1.32803778220101    4.90649247107692
H        15.85557270611068    1.50505962710550    3.89439797053159
C        18.51480538556437   -0.40797947548905    3.52282283050552
C        11.24910357065865    0.88538804848319    6.48167028563272
C         9.64265527896681    2.65914408126017    6.36353777939502
H         8.69013024693131    3.03219857662129    6.01713177774643
C        10.45439130935271    3.48080378747972    7.12360486257797
H        10.12509633681920    4.48025085410167    7.35734715996759
C        18.63755796674168    1.97339669622711    3.94811509942179
C        10.02304629541306    1.37056650632832    6.03710482350175
H         9.36339089643353    0.75837480857876    5.44380059127728
C        12.23382627506404    5.03011928929510    8.68994802663592
H        12.09796766683080    5.67654637250941    7.81609157228614
H        13.07705417746260    5.39203273704730    9.27616955196804
H        11.32825349388670    5.05775036671462    9.30560333691985
C        19.38735196958640    1.07640541315057    1.85668361225573
H        19.81126697471846    1.22984237298244    0.87524724785233
C        19.18302882416501    2.16623488053197    2.68263317850341
H        19.45110111893018    3.15090357387832    2.33550166037209
C        18.69310580197156    4.28817540530843    4.49312881468023
H        19.76053190792196    4.42499104682742    4.28877245212975
H        18.41228951481038    4.89262720368320    5.35417060676855
H        18.11272608842266    4.61025949002857    3.62180833409026
C        19.06116989288778   -0.20549192353341    2.25923537978048
H        19.23331791976124   -1.03086399663586    1.58760382260991
C        18.34911420051742   -2.76411727168316    3.24197552241319
H        17.77270026333879   -2.72532180716679    2.31126324603045
H        17.99724145377915   -3.59806512707102    3.84727394076909
H        19.40866337982812   -2.91134450558311    3.00631750685766
C        10.95391500180776   -1.24030906282946    5.45596802123157
H         9.99050435335374   -1.45751662059712    5.92982078391751
H        11.53443979912482   -2.15882276520568    5.38575964331931
H        10.78199897617692   -0.84459566339801    4.44916871311924
O        20.22019502945674   -3.71800565287983    9.34463548062721
N        17.07957491696671   -0.67832312938108   10.55174803405675
N        18.16058817447521   -0.30120386517998    8.00896562179834
O        14.39097471678850   -2.96303169552246   12.81113637740912
O        14.64242492240438    1.61753964796443   13.63614705585403
O        21.06027480873800    0.36416373289874   11.43044161048280
C        19.28515746366659   -0.78841712476063    8.61349263316957
C        20.70852123560361   -1.70363360236812   10.41228405266563
C        19.40261040452634   -1.19131184289139    9.93439518638210
C        18.34181322198480   -1.12582826564386   10.82385813016591
C        19.91476207484407   -0.35488292059258    6.51555632340338
H        20.43926154992662   -0.22162762006922    5.58922810150277
C        16.39486436783394   -0.80063036386716   11.72807824512337
C        14.48687778825232   -0.68369298806653   13.29349382632347
C        15.06580954009213   -0.47299750287329   11.94589077403565
C        18.53148543080815   -0.04006095664749    6.71987802555000
C        20.38329409117488   -0.82106134091980    7.69307244408514
H        21.37376928966400   -1.15221154972221    7.93865414288237
C        18.45067410776507   -1.53859522339550   12.19203223437268
H        19.34210549990328   -1.93340623156805   12.63971555647095
C        21.10709435094112   -3.00404889625769   10.09103273898656
C        17.24227323327409   -1.32806775656163   12.75666744145355
H        16.93368791049283   -1.50512888267059   13.76875073061991
C        14.27432532562070    0.40770883788222   14.14034640846000
C        21.54019341766178   -0.88509336096369   11.18155902871555
C        23.14673449136004   -2.65876165401717   11.29976004416494
H        24.09926895659089   -3.03176023473657   11.64619966441808
C        22.33505562837219   -3.48048405700324   10.53970027931626
H        22.66440612280047   -4.47992126203790   10.30599208016867
C        14.15180239984962   -1.97365824316089   13.71493967354484
C        22.76626981611027   -1.37019579438762   11.62615391980255
H        23.42588289540284   -0.75795367988257   12.21945316379822
C        20.55574382925458   -5.02992130287203    8.97334254750848
H        20.69163807998683   -5.67632769636667    9.84720776644676
H        19.71254494371894   -5.39189824157096    8.38711876430713
H        21.46132289957515   -5.05750045033079    8.35769485151220
C        13.40195580883572   -1.07684166520016   15.80642739104505
H        12.97802422554174   -1.23036131947076   16.78784432974474
C        13.60641609920380   -2.16661431919143   14.98043733921979
H        13.33836025617192   -3.15131456421796   15.32749327899871
C        14.09631555837968   -4.28839787870184   13.16977773913218
H        13.02889445980743   -4.42527196603209   13.37412166220229
H        14.37716098554582   -4.89279187254261   12.30870568324764
H        14.67670260921082   -4.61050173110298   14.04108494514910
C        13.72801220831167    0.20510604190324   15.40393608938517
H        13.55579227615627    1.03042984243866   16.07560774516480
C        14.43999074658245    2.76383401470983   14.42139178032525
H        15.01650821539063    2.72492316536770   15.35204054364508
H        14.79183636300710    3.59783089076197   13.81614398819557
H        13.38047015078944    2.91106930419381   14.65717516180275
C        21.83523301724055    1.24063184040014   12.20724867081930
H        22.79864836921383    1.45789813699499   11.73343219834589
H        21.25465036708306    2.15911129279456   12.27743505439094
H        22.00713482573467    0.84492831443534   13.21405464263824

