48
CSD_code = TIPDAY | q = 1 | S = 0 | Stoichiometry = C14H16CdN7O10(1+) | MND = 7
Cd        1.98001673348477    1.61874017991639    9.05007422236552
C         0.83533928455789    4.80858068053758   11.81299348276646
C         1.49144174496698    3.86253511682649   10.87921817809931
O         0.87550145344985    2.91418775859251   10.38597895964261
N         2.78351206205829    4.10259618034015   10.58653347399911
H         3.25354410864933    4.91702208076459   10.96867366843425
N         3.47273837506906    3.26011573949610    9.70705324065152
H         4.24312286685149    2.76873098549291   10.16612955097020
H         3.83928582546573    3.76871344022987    8.90038141705307
C         1.53385130339544    5.48031122870445   12.81840985087138
H         2.58787253703989    5.31002779604495   12.97511433533745
C         0.86375687243728    6.34257185369081   13.66502579073944
H         1.37756320172009    6.87122609969554   14.45391935007299
C        -0.50158570719738    6.53195953771042   13.50153714546465
N        -1.20465572963918    7.44810186718862   14.39407352874984
O        -2.39243930879558    7.57043679697662   14.22452850340821
O        -0.54240295858173    8.01068897872505   15.23062085187454
C        -1.21411930892611    5.86204435684171   12.51704581179210
H        -2.27713157253613    6.02782941867165   12.42782118886659
C        -0.54197597075933    4.99559833411153   11.67803227605204
H        -1.06777711008792    4.45868848083715   10.90429391237799
C         3.41711888789068   -1.92660169352614   10.81788725642009
C         2.51991039477270   -0.79720918404617   10.49444603832155
O         2.91000068996347    0.37952057298612   10.51810722402383
N         1.23435228436735   -1.08530720349110   10.22598741765007
H         0.90629611860918   -2.04512278752716   10.23405412105684
N         0.34932584694448   -0.05102234568344    9.87147423314025
H        -0.22483826085667   -0.33425487096635    9.07662668111275
H        -0.25498413388388    0.20488482032139   10.65577977028406
C         4.48746593849466   -1.67989666114236   11.67938798357286
H         4.60726413461664   -0.69233747842897   12.09658655537581
C         5.37219364240450   -2.69083109789032   11.99607267030102
H         6.20482828988985   -2.52782667242421   12.66353259468290
C         5.18737946063332   -3.94577862233889   11.43277320959166
N         6.11940977343222   -5.01732797612445   11.76152499405892
O         5.90151743392908   -6.10126818635560   11.27839621771914
O         7.03593381616095   -4.73938977352985   12.49612606178932
C         4.14336210700238   -4.20092181231023   10.55419955416620
H         4.04934509895296   -5.18480928363195   10.11985186973845
C         3.25361864418407   -3.18987563301164   10.24730984352712
H         2.47724616129703   -3.37503776854298    9.52284132471036
N         2.91099999591175   -0.01453970950206    7.81973904309133
O         3.63849927181525    0.97513678514248    7.92726322799327
O         1.70628811583753    0.18596478652853    7.57985931005673
O         3.32379030376226   -1.12619161341103    7.95438548177080
O         1.55691625674063    3.10118539629893    7.29423132765835
H         0.66059358225899    3.07484247801940    6.93574195699271
H         2.13680744189960    2.82460862317734    6.57065529221418

