106
CSD_code = TIPKOS | q = 0 | S = 0 | Stoichiometry = C36H66AgClP2 | MND = 3
Ag       -2.03900613984039    2.50665482995858    5.80309936647704
Cl       -2.03916642888014    0.10188378520103    5.80337221380888
P        -1.17156747899103    3.80007665530689    7.86846316434588
C        -0.90208584776170    2.56609030951867    9.23488477202062
C        -2.23265652432808    1.88292007901999    9.55562129894761
C        -2.04583782519703    0.74919830640426   10.55972597960867
C        -1.05152596602036   -0.27631468230961   10.02951919465864
C         0.28491139799893    0.40168818994580    9.75600428978190
C         0.09993899014021    1.52121795542565    8.73762259787125
C        -2.43410671481924    4.97974328864376    8.58287329148124
C        -2.78832606954046    6.05498631004694    7.55522800387435
C        -4.00361608705533    6.84977664744418    8.02410008636360
C        -3.72846766309828    7.48721393427779    9.38321476986213
C        -3.33575423338452    6.42451856816053   10.40546399087924
C        -2.11787545111617    5.63646038024084    9.92359796665928
C         0.39914560244976    4.81829276973310    7.79453445347207
C         1.26792280863761    4.31868412336166    6.63648039715341
C         2.42996806508769    5.27689462960594    6.39531694337415
C         3.27129193696558    5.41401755259522    7.66108367280305
C         2.40736108348165    5.88013261484978    8.82913681487949
C         1.24668052059015    4.91308470259244    9.06252510962269
H        -0.51121554529294    3.06592638845549   10.12986279978950
H        -2.64559099949479    1.47336631648295    8.62564009167712
H        -2.94744431870700    2.60296151968158    9.96087640211099
H        -1.67972044573989    1.15849463102958   11.50637654467200
H        -3.00960517668610    0.27322753526939   10.75152325740782
H        -1.43263620176052   -0.70078104389269    9.09934842415874
H        -0.92589093767419   -1.08731239464048   10.74976999689781
H         0.68830768327039    0.81130834596797   10.68744398220563
H         1.00189366460253   -0.32533607441067    9.37018107061214
H        -0.27790945736775    1.09131334370681    7.80397418130927
H         1.06606339014366    1.98480948580994    8.52767077339328
H        -3.32528218136011    4.34741554037899    8.70592632820820
H        -1.94731158424582    6.73960135304413    7.42144594306039
H        -2.99544313676173    5.58503738297614    6.58935896511686
H        -4.86485495018921    6.18220004949537    8.10240369557217
H        -4.24599903680989    7.62481548127984    7.29336528923033
H        -2.91589171517476    8.21130228535367    9.28509162552653
H        -4.61393672497692    8.02477387671468    9.72812446757251
H        -4.17359196016488    5.73979759514878   10.55721358350290
H        -3.11299294686838    6.89681318275528   11.36472156070711
H        -1.27737400385466    6.32362032611753    9.80940586089946
H        -1.85224822630824    4.88544619018460   10.66974216637125
H         0.05422341072394    5.82915221963097    7.53465762647415
H         1.65987064361047    3.32657647277590    6.86813901727343
H         0.66090669178952    4.22393724335270    5.72962709396968
H         2.03929118841355    6.25718859822399    6.11031103582534
H         3.04968406690376    4.91195122128140    5.57386303253269
H         3.71621565276331    4.44667179774826    7.90497758305493
H         4.08480016679250    6.12285037161023    7.49399706260209
H         2.01383354006123    6.87703377763169    8.61371989527149
H         3.01372858497485    5.95023310196237    9.73482810314558
H         1.65317514616132    3.93308404071322    9.31566238260412
H         0.65043646618505    5.25815947245298    9.90785388474185
P        -2.90639541457551    3.80015351134972    3.73801381325154
C        -3.17605433555775    2.56620456263433    2.37154844663411
C        -1.84554789734244    1.88291223929536    2.05080260003443
C        -2.03228359587334    0.74920606747847    1.04665375255696
C        -3.02660593843372   -0.27626844020362    1.57691194139118
C        -4.36306035355428    0.40172876258043    1.85035048500112
C        -4.17803786837767    1.52124757821385    2.86874848848141
H        -3.56688167639798    3.06598572991538    1.47651012496281
H        -3.80022051217648    1.09134686083454    3.80242857849131
H        -5.14415872585186    1.98486981177176    3.07863990916520
H        -4.76643015766180    0.81132270121835    0.91888594099728
H        -5.08006014212539   -0.32528354504783    2.23616265289806
H        -2.64554596725954   -0.70077369965679    2.50709217443707
H        -3.15223857306120   -1.08724949220890    0.85664999466691
H        -2.39837028776021    1.15850705524975    0.09998387636232
H        -1.06851932167862    0.27320258292007    0.85489900367045
H        -1.43262056140997    1.47338786542937    2.98079194167742
H        -1.13072562389761    2.60290634582524    1.64554812995318
C        -1.64393291420634    4.97983174904834    3.02350396346998
C        -1.28985774260503    6.05501906217153    4.05126105878487
C        -0.07459516868733    6.84976868757244    3.58226403826464
C        -0.34965149918317    7.48729723797938    2.22316921297287
C        -0.74233575960494    6.42449753932076    1.20101380150155
C        -1.96027877822691    5.63643576708877    1.68273088517581
H        -0.75275945507663    4.34749417324714    2.90045744929352
H        -2.80077894387193    6.32360697892081    1.79692478526675
H        -2.22588409692808    4.88543910754409    0.93654003763033
H         0.09554159774175    5.73980519532927    1.04926159824150
H        -0.96508985317321    6.89681929128884    0.24177346930097
H        -1.16225227441444    8.21136773069113    2.32130603257339
H         0.53582811338716    8.02489255099133    1.87830597453058
H         0.78667208865134    6.18221858783578    3.50401664583783
H         0.16771843968429    7.62478869977798    4.31302701968421
H        -2.13089881570471    6.73961926680508    4.18497781790148
H        -1.08277434971705    5.58505364111010    5.01713900305189
C        -4.47723690807864    4.81820073198978    3.81179850412729
C        -5.34613622906090    4.31871875594563    4.96979777245418
C        -6.50818119095658    5.27690728554959    5.21108423346218
C        -7.34936303215966    5.41396861088894    3.94521742260857
C        -6.48551422102562    5.88018808674629    2.77712540378300
C        -5.32486233621249    4.91308362440979    2.54386966160567
H        -4.13231653347593    5.82904819183564    4.07167478301956
H        -5.73135007268300    3.93308357809127    2.29070795226125
H        -4.72859664870906    5.25817195208638    1.69856999522540
H        -6.09195873120704    6.87707978699548    2.99257081368606
H        -7.09187965300250    5.95029834357484    1.87142064025278
H        -7.79434837872619    4.44664042884941    3.70133523763542
H        -8.16283709947938    6.12282097106591    4.11233031182319
H        -6.11747237645512    6.25719415311549    5.49607567829763
H        -7.12789522861470    4.91196989271709    6.03255771846623
H        -5.73806738300874    3.32659782590591    4.73814739977042
H        -4.73911633446879    4.22400543154106    5.87664971802528

