106
CSD_code = TIPLAF | q = 0 | S = 0 | Stoichiometry = C36H66AgIP2 | MND = 3
Ag       -2.08722942608814    2.58738132278281    5.83553602227514
I        -2.08772272165329   -0.12489115955605    5.83573646984853
P        -1.16974093021545    3.82900572605330    7.91097714241069
C        -0.85325285568828    2.64786042723357    9.31838765611485
C        -2.14753562879615    1.90813781649818    9.66229896658145
C        -1.90525899932952    0.82235509842537   10.70658366801721
C        -0.85369835139795   -0.16723071676359   10.22048329874811
C         0.44665552256816    0.56956400867579    9.92560998493790
C         0.21299082761815    1.64466036699068    8.87016160144099
C        -2.50493239904779    4.94881873290768    8.58603062693225
C        -2.89286465517368    6.00130567200846    7.54739134512800
C        -4.15244401391782    6.74032992379736    7.98904157616078
C        -3.93811679460283    7.39434178096220    9.35077411714245
C        -3.51723277209152    6.35326238380641   10.38364115453364
C        -2.25144364265676    5.62773945990927    9.92908321164444
C         0.34755595491128    4.92736245192279    7.85177359172432
C         1.28012636913944    4.45132380125907    6.73391567340259
C         2.40060713888145    5.46181100014209    6.50940777378855
C         3.18948487341750    5.67603209702381    7.79766405656588
C         2.26058977625984    6.12357039517730    8.92204188717404
C         1.14932999861071    5.09765697378633    9.14149588498482
H        -0.49755345681636    3.19716137711205   10.19839485575162
H        -2.54662656779261    1.44633417337934    8.75218779822808
H        -2.89645819626044    2.60569815711553   10.04439804007835
H        -1.56842983653673    1.28498547891729   11.63910405673315
H        -2.84312343038896    0.30223088998493   10.91023548966348
H        -1.20656897320860   -0.65475969781594    9.31024358133887
H        -0.68701309053725   -0.93750332053435   10.97567050624139
H         0.82446207581028    1.03073742123094   10.84311641823133
H         1.20128978016641   -0.13230803079204    9.56623129965966
H        -0.11729661348393    1.16547886598205    7.94409889447248
H         1.15477117535738    2.15657548220993    8.66169168404077
H        -3.36588037286174    4.27239706218969    8.69678181616749
H        -2.08225834628437    6.72399096348960    7.42180015157507
H        -3.06634085711253    5.52320496295250    6.57880460032794
H        -4.98446591851918    6.03450219392282    8.05238190122926
H        -4.41485079045157    7.50095554967269    7.24972763015514
H        -3.15918212162836    8.15665088014142    9.26807695781736
H        -4.85605582141419    7.88955775085454    9.67356910951697
H        -4.32343789675113    5.62782747538476   10.51869295726786
H        -3.33854159760736    6.83611518112167   11.34687769310947
H        -1.44678040469351    6.35889197993745    9.82725424872037
H        -1.96093124786647    4.89603555050744   10.68522941900134
H        -0.04278342952461    5.91267494185691    7.55730168711463
H         1.71323392819130    3.48426682050602    6.99749585733326
H         0.71565457675077    4.31099667579788    5.80669129182899
H         1.97201142083645    6.41366226058969    6.18487541059368
H         3.06607740440295    5.10832537814081    5.71905058129000
H         3.67753904407188    4.74114564609931    8.08286977905863
H         3.96862534983741    6.42414892368640    7.63774509026266
H         1.82033610248602    7.09133050259593    8.66657625977867
H         2.82870165027802    6.25042302449507    9.84620501646589
H         1.60341544310191    4.14792778955224    9.42801381524477
H         0.51006329205863    5.42525645842159    9.96200962197952
P        -3.00446910508226    3.82899427105843    3.76005054139746
C        -3.32091895044768    2.64788347420541    2.35260359089535
C        -2.02663246595329    1.90812989637129    2.00877630231084
C        -2.26885867119096    0.82234513474398    0.96448275319402
C        -3.32046144682993   -0.16722276313057    1.45052621653849
C        -4.62082157650704    0.56959408725567    1.74531418649371
C        -4.38720235388306    1.64469853744125    2.80076380660925
H        -3.67655812491948    3.19718773828630    1.47256716306368
H        -4.05697595539344    1.16551591926387    3.72684727515417
H        -5.32898757916229    2.15662433387464    3.00917693151951
H        -4.99857097693775    1.03076175673158    0.82778103758479
H        -5.37548454467710   -0.13226560215490    2.10465730431994
H        -2.96765219606348   -0.65475129911060    2.36079103238651
H        -3.48711267613716   -0.93749839073710    0.69533536997060
H        -2.60562346163202    1.28497489819843    0.03193829497975
H        -1.33099004812959    0.30220445025681    0.76089011344390
H        -1.62760864342997    1.44632257126830    2.91891831106686
H        -1.27767158698827    2.60567160471302    1.62672195044985
C        -1.66930258647064    4.94882963365473    3.08498061835184
C        -1.28137915901346    6.00132148669421    4.12361600581596
C        -0.02179823525000    6.74035473260305    3.68198025884757
C        -0.23610663867023    7.39437325708067    2.32024873584443
C        -0.65696933410904    6.35329268860541    1.28737649789206
C        -1.92276119576014    5.62775549840328    1.74191858011569
H        -0.80835201654633    4.27241726407631    2.97423820608826
H        -2.72742513283907    6.35890546739210    1.84373316961079
H        -2.21325333831712    4.89605255148056    0.98576627410897
H         0.14924144092196    5.62786450266745    1.15233526239055
H        -0.83564567005617    6.83614912935835    0.32413667595794
H        -1.01504727981691    8.15667639982952    2.40293705331336
H         0.68183356979329    7.88959780273437    1.99746748618308
H         0.81022886306967    6.03453294495204    3.61864781519269
H         0.24059846639782    7.50098037001404    4.42129798834370
H        -2.09198924577774    6.72400185148916    4.24920401964565
H        -1.10790648583474    5.52321990330974    5.09220272087161
C        -4.52176106764616    4.92736756158940    3.81916766951411
C        -5.45436239070303    4.45134841255460    4.93700302044381
C        -6.57484556597992    5.46183626605617    5.16149661659369
C        -7.36370913424104    5.67605867465130    3.87323264175944
C        -6.43479989536466    6.12359042238424    2.74886614906809
C        -5.32352936786922    5.09767620921596    2.52943717993755
H        -4.13142979620160    5.91268107969969    4.11364260752357
H        -5.77761509006667    4.14795237260978    2.24291388560546
H        -4.68425420224197    5.42527513323843    1.70893511561520
H        -5.99454919004130    7.09134851067910    3.00433402951224
H        -7.00290668130596    6.25044590801649    1.82469544417607
H        -7.85176170028220    4.74117326346423    3.58802456160768
H        -8.14285026719073    6.42417671090745    4.03314104731238
H        -6.14625360760071    6.41368591120102    5.48603597946156
H        -7.24033005481685    5.10835465060321    5.95184547976208
H        -5.88746999384780    3.48429204006174    4.67342360547751
H        -4.88990719732436    4.31102443843661    5.86423618682162

