87
CSD_code = TIPMAI | q = 0 | S = 0 | Stoichiometry = C42H34FeN10 | MND = 6
Fe        0.00017228178923    5.86117841578173    0.00011597836073
N         1.24037551346015    5.02184007821991    1.25226966780258
N         2.51885912025950    6.94380917352883    1.91519057117329
N         0.90201200329958    7.57398390467538    0.25391749508425
N        -0.42063252216076    8.95688276374004   -1.19708826997202
C         1.21800731779202    3.71582748602573    1.63185016216447
C         2.23864099307307    3.48722982901514    2.63624988131810
C         2.63295423656226    2.36192928200900    3.34068198737566
H         2.14799034702356    1.41330486615353    3.17262026119618
C         3.66129587169278    2.50311498395910    4.25673451411034
H         3.99349187993303    1.64445472933164    4.82222192744452
C         4.28026219303117    3.73352441167888    4.46666807448124
H         5.07906624572879    3.80355530951696    5.19082835722994
C         3.89188808223153    4.86270743164447    3.76635134595102
H         4.36661847573492    5.81870200013984    3.92234143368691
C         2.86469676311585    4.72882850973442    2.84703956595570
C         2.20586801324434    5.66722607057484    1.95954393492931
C         1.91609573540502    7.80886101411160    1.12941393146205
C         2.24717954645812    9.22047195819056    1.11837040633481
C         3.18001576807584    9.97533557548860    1.81036064018153
H         3.84723698688235    9.50768589860354    2.51732303796378
C         3.22043162162804   11.33614212202169    1.55980925018583
H         3.93697519302820   11.95342988894662    2.08218087272189
C         2.35396193032734   11.92960793283350    0.64413261882782
H         2.41708627245488   12.99492812804998    0.47550887791948
C         1.41817075206465   11.18204258733402   -0.05000143055258
H         0.74317652736528   11.63358458118055   -0.75968890814163
C         1.37146060250647    9.81968989459781    0.19488831089433
C         0.53633027050014    8.75203306076233   -0.31986094204336
C        -0.90275369989333    6.37539081110333    1.52301935087677
N        -1.11727060517160    6.82600713009001    2.57473604434072
C        -1.13906580115023    7.44209171414859    3.84375181349079
C        -2.53033270161191    7.25341531724473    4.45213944768673
H        -2.57226383794046    7.72435031379110    5.43062014000065
H        -2.75547493476311    6.19494313018127    4.56302145323678
H        -3.28781428428246    7.70362262405086    3.81411398509495
C        -0.06358074029411    6.76927139983061    4.70311223114691
H        -0.26295657067289    5.70382280666586    4.79965242320204
H        -0.05124377259887    7.21573654861259    5.69405393789687
H         0.91683526269156    6.89472028747611    4.24753911515177
C        -0.82099698780341    8.92745752414755    3.64360662859705
H         0.16437597768305    9.04650818042624    3.19697613160504
H        -0.83524343753238    9.43977574840669    4.60210022540437
H        -1.55430012390756    9.39004324137873    2.98617982424541
N        -1.24015466454181    6.70054579200299   -1.25186796703089
N        -2.51857039080336    4.77856548558830   -1.91489027858847
N        -0.90155052343222    4.14832390159764   -0.25381599609634
N         0.42093256116883    2.76548400093162    1.19738937496724
C        -1.21803899984376    8.00664401813894   -1.63117184010120
C        -2.23928735258647    8.23543913793718   -2.63489942479339
C        -2.63420391382342    9.36093530446938   -3.33867987870250
H        -2.14924032874540   10.30955905684158   -3.17061497436469
C        -3.66316774337878    9.21995415352774   -4.25406285014084
H        -3.99585238945394   10.07877416181892   -4.81902387061120
C        -4.28213955930987    7.98954738260643   -4.46399812676489
H        -5.08143054767117    7.91967645525517   -5.18764020970365
C        -3.89314728850038    6.86016320163571   -3.76435078579077
H        -4.36787600269937    5.90416784622515   -3.92034565786883
C        -2.86534919269435    6.99384309076895   -2.84568898724035
C        -2.20590536125679    6.05524292515250   -1.95886544079744
C        -1.91544887540824    3.91339792084699   -1.12951655724319
C        -2.24601791359391    2.50166186639491   -1.11903669873173
C        -3.17835219529203    1.74667089528963   -1.81156277660944
H        -3.84556531639687    2.21429879909714   -2.51854651436471
C        -3.21824259159068    0.38574703893485   -1.56156639988692
H        -3.93433625997434   -0.23165724501432   -2.08442652834382
C        -2.35177010474752   -0.20770884120858   -0.64588630279432
H        -2.41444459040467   -1.27313677810755   -0.47773947224150
C        -1.41649639631948    0.53998774448189    0.04880178062236
H        -0.74148839912455    0.08845781602935    0.75848481063989
C        -1.37029167940302    1.90245028382739   -0.19555858008650
C        -0.53567543275424    2.97023514758762    0.31975293122676
C         0.90296952215867    5.34732452235181   -1.52301079451157
N         1.11729078062366    4.89698102020903   -2.57491751363859
C         1.13869863081579    4.28184378711148   -3.84439628336758
C         2.53012141021381    4.47002422759511   -4.45258689627803
H         2.57175207014447    3.99978091009678   -5.43141284401231
H         2.75604500895422    5.52842421890430   -4.56268236772141
H         3.28725359651332    4.01878777015788   -3.81487493382652
C         0.06370016700101    4.95600825021312   -4.70331313130292
H         0.26385852892536    6.02137876516203   -4.79909048391252
H         0.05105672814779    4.51026446468040   -5.69457720985163
H        -0.91682851122361    4.83095693715776   -4.24786007492071
C         0.81953179002314    2.79656509124718   -3.64531650402014
H        -0.16595935684181    2.67783854328242   -3.19885984308021
H         0.83353831678327    2.28496495930107   -4.60418753784526
H         1.55248100512518    2.33301730443188   -2.98818266629636

