43
CSD_code = TIPXAR | q = 0 | S = 0 | Stoichiometry = C18H18CoN3S3 | MND = 6
Co        7.64655004416088    4.39819283114244    3.65036988672172
N         8.05244386362975    2.61383002010924    2.97935986026555
C         7.74235835495673    1.78397544112449    1.97962978272506
C         8.42624601502462    0.58969256133063    1.81870767834470
H         8.15872001052439   -0.07009879952786    1.00911013971732
C         9.45728496362575    0.25286840619287    2.69326988085336
H         9.99334208454234   -0.67550530264586    2.56528650646978
C         9.78698465114875    1.11671500294081    3.70990175444570
H        10.58208576943536    0.91974405984043    4.40951366027957
C         9.06042945940637    2.30489704161605    3.82136777707778
S         9.31347520091450    3.53359508041941    4.98097020105163
C         6.65244757235907    2.17568893170690    1.03356495772079
H         6.32857768587288    1.32007595817789    0.44750916590997
H         7.02025765117383    2.94379080566311    0.35314119025768
H         5.80209955508076    2.58939405330566    1.57026533431750
N         6.40538823870160    4.00768364431190    5.10075301663826
C         5.77257296235248    2.98344373158164    5.67934685038348
C         5.05357041674400    3.17076693655624    6.84890616220952
H         4.54489198059336    2.33349995531510    7.29898637899618
C         4.99921751844595    4.43124979895191    7.44008556088665
H         4.44311948607007    4.57640359741316    8.35402046591686
C         5.66575974792790    5.47972501901790    6.85274972869375
H         5.67282054054671    6.47375155842517    7.26781013875995
C         6.37233319340519    5.22869523533681    5.67388595030007
S         7.29345995689953    6.36502509712627    4.79137826199687
C         5.86570963239986    1.63197741208133    5.04590234940136
H         5.11026442593885    0.96568652198204    5.45307528832188
H         6.84885356407186    1.20462247177947    5.24338857079185
H         5.74529175805811    1.69935558861763    3.96736726799492
N         6.45122513010411    5.08164410559439    2.27173465088099
C         5.15403274821193    5.29065734670699    2.03121993017523
C         4.74984381291779    5.96636684160756    0.89103514258744
H         3.69826163592420    6.12075935596548    0.71026892475089
C         5.69928973245769    6.44911514566664   -0.00723021846344
H         5.38468613513967    6.97939755686231   -0.89349509989327
C         7.03406475841917    6.25034113221987    0.25233319161666
H         7.81547560518484    6.61097120623640   -0.39555815840484
C         7.37917482804859    5.56036242768204    1.41720151036968
S         8.96542188088945    5.22452167294050    1.95515959052214
C         4.15101101890418    4.79202385942615    3.02198036844461
H         4.15194986579523    5.44090958402296    3.89789365376265
H         4.39986344029092    3.78727756606968    3.35490253271115
H         3.15374310369898    4.79340953910725    2.59083021348979

