29
CSD_code = TIPYEW | q = 0 | S = 0 | Stoichiometry = C12H12MoO4 | MND = 8
Mo        1.92986017244091    5.11837746721088   10.76529716230885
O         4.05072997210216    7.37251850829519   10.75716826588459
O         0.37908443345969    6.59108180333774   12.98652247712128
O         3.53212104759643    3.77950901516898   13.03393435079643
O        -0.19193367429996    2.87214817920365   10.94074010078197
C         3.26546023092584    6.54848791674684   10.76062680555293
C         0.94283108226928    6.05992313405391   12.14716691912750
C         2.95000323035906    4.26146169334375   12.17773019344624
C         0.59461184199820    3.69245073273090   10.87801452402751
C         1.27955578495154    6.56995188240846    9.07366844406374
C         0.41560155460355    5.49448618975391    9.02879312095474
C         0.47647667266955    4.47331485156269    7.91224601065427
C         1.43415725043176    3.29028881462614    8.15927897571391
C         2.54084232568277    3.56919635276687    9.14779149226839
C         3.40268193905495    4.63951315391807    9.01882348926157
C         3.31489352691863    5.59272496529279    7.84545854134791
C         2.36225087241669    6.78883356747698    8.04428550266619
H         0.91078933021204    7.49362510133502    9.52165838902630
H        -0.57629818902156    5.64142170238250    9.45624538387808
H         2.92040052365662    2.67370678506600    9.64164913873464
H         4.40429947413788    4.51786988772884    9.43132265884046
H         0.75755938910754    4.99283064463886    6.99095649303292
H        -0.52744555109240    4.07247268947138    7.75371786771859
H         0.85868755395352    2.43412911589342    8.51904496434179
H         1.88771369570391    2.98221202224693    7.20810282404523
H         3.01280782034091    5.01958080103684    6.96345511202515
H         4.31452318215115    5.98286332400779    7.64003824732470
H         2.94534260182599    7.66459122119267    8.33863521117182
H         1.88609190544339    7.03992847710239    7.08742733388244

