25
CSD_code = TIPZUN | q = 0 | S = 0 | Stoichiometry = C11H10Cl2NV | MND = 8
V         9.05469241071409    1.25210279532922    5.43942602621935
Cl        8.85866079382889   -0.21478341829474    3.93828857280106
Cl        9.35942679534888    0.00811777973626    7.10980110006344
N        10.57679633684782    1.66472115007679    5.14488045168620
C        11.84325000034387    1.97904713784625    4.91320473026974
C        12.83430603664043    1.66801881792706    5.86642731270254
H        12.52510743188012    1.18016096916106    6.78143541693276
C        14.15306327931178    1.97654216932814    5.61271666523322
H        14.90929160140283    1.73123290441466    6.34341917296126
C        14.51520065093040    2.60025381784591    4.42630589095945
H        15.55048039972464    2.83996681062662    4.23716284290177
C        13.54732929398491    2.91354660578785    3.48192414812074
H        13.83302583724810    3.39685927306553    2.55941538707386
C        12.22276013861717    2.60975911189284    3.71188409398310
H        11.45194805081432    2.83736391063891    2.98767737797235
C         6.93691868474611    1.75278758547672    6.34955301268834
H         6.35983250950979    1.14108165617084    7.02908016756160
C         7.91065015098147    2.70075188247330    6.72804667505213
H         8.15884445159280    2.98270367566021    7.74281178628085
C         8.38288358260185    3.33374804038235    5.56007339796922
H         9.02273152641881    4.20676202763107    5.52307399926182
C         7.73044741958009    2.73369932994516    4.45956151375894
H         7.79757852576581    3.06077049257549    3.43005591339320
C         6.82340517568693    1.77519994725471    4.96233435430084
H         6.13886891547908    1.18778552704801    4.36593998985437

