85
CSD_code = TIQDIH | q = 0 | S = 0 | Stoichiometry = C43H34AgNO2P2S2 | MND = 3
Ag       11.44822969761801   11.55232667488621   10.14595656741447
S        14.04208708411559   11.39482670993659   10.38597158893542
C        13.71282650441194   10.22540814419766    9.24229199475675
N        12.53721164554731   10.13380893003528    8.66667426628159
S        12.53175552171156    8.94589985080180    7.51771461628692
O        11.54594802530952    7.94571810877082    7.82886114144461
C        14.19552368052083    8.37754629220438    7.85738221860957
O        12.43121039376067    9.53724338197670    6.21045925626075
C        14.93205733194896    7.33776199649405    7.34692761927771
H        14.51513803650355    6.68554836925215    6.59556368581207
C        16.22250915839518    7.15874148875149    7.83314576931933
H        16.82667798930276    6.34779463309606    7.45440277085090
C        16.74293765871718    8.01172106109133    8.79701272483698
H        17.74933519783702    7.85539411798237    9.15667111152201
C        15.99110374022186    9.05833380258969    9.30569872504669
H        16.38256096364335    9.72767322958254   10.05664258460910
C        14.70217219038274    9.23185641808576    8.82535684074134
P         9.38220970713664   12.81998536955778    9.62575342487037
P        10.67007998452695    9.57059471594276   11.66510084712025
C         8.09128817390402   12.64043835550555   10.89255183665728
C         8.07490222968073   13.53494503442769   11.96181882321986
H         8.75760325425124   14.37455873742782   11.96090939336795
C         7.19664150302964   13.34766212742233   13.01245424730369
H         7.18400657048438   14.04854578683133   13.83434895976942
C         6.34099910650760   12.25676552464628   13.01641176652812
H         5.66000814682273   12.10755237506828   13.84098754103434
C         6.36583405923995   11.35550201158623   11.96512827463466
H         5.70737609599911   10.49963522135882   11.96784315891329
C         7.23854477235869   11.54052631607826   10.90798553838417
H         7.26070976059718   10.83204974192667   10.09300695788530
C         8.64130803617321   12.11749674106664    8.11506299322960
C         7.29611976152537   12.26351935669133    7.78929561134780
H         6.63117417015620   12.79943077974848    8.45159132571796
C         6.81030612614061   11.70837214946997    6.61982270862930
H         5.76422311585978   11.81589201535720    6.37140846406916
C         7.65694877420614   11.01509687120276    5.76757379087601
H         7.26576643266097   10.57950425322781    4.85988729172236
C         9.00057597122600   10.88487325148691    6.07820907563096
H         9.67493131733135   10.34921167526972    5.42752624765439
C         9.49045702314283   11.43908942988266    7.24669789446941
H        10.54299324441435   11.33578899432394    7.48876473958412
C         9.31962126481283   14.59512289793388    9.20843587042891
C         8.15142487719053   15.34872272822180    9.25748884424171
H         7.23276799736496   14.90248271835722    9.61053142390715
C         8.17445514442286   16.67567988019840    8.86918314702656
H         7.26831924609303   17.26230236521770    8.91154178891582
C         9.35319934121034   17.25432194499665    8.42553082821510
H         9.36331716087105   18.29098094094279    8.12321502912540
C        10.51805641188793   16.50616373274706    8.37432951579488
H        11.43740703483180   16.95811397182928    8.03282184425439
C        10.50188894283075   15.18035923669693    8.76696069362486
H        11.40760418034171   14.58264489072161    8.74457248059543
C        10.32361608620645    9.48443692740508   13.45432369314901
C        10.65668201369156    8.39373418505485   14.24961045081365
H        11.17096481189403    7.54747864044592   13.81576879394676
C        10.32621532233752    8.39681689051042   15.59318750767799
H        10.58608068051661    7.54952880926895   16.21104994593144
C         9.66035386381035    9.47860859589508   16.14672506564600
H         9.40373616291522    9.47356576610312   17.19582784596497
C         9.32848156044897   10.56785933018456   15.35660424479062
H         8.81280545643391   11.41362573383151   15.78722219345660
C         9.66506946495740   10.57419124002441   14.01614226833973
H         9.42260297450892   11.42238799273657   13.38777461979357
C         9.18102400762496    8.78721780394192   10.96776365126421
C         8.16589419681062    8.22907827861555   11.73600654502919
H         8.25095542052437    8.20054550237438   12.81272648723450
C         7.04038514351268    7.71302514234474   11.11702147201947
H         6.25382182499892    7.27723902728751   11.71658016933810
C         6.91849103361952    7.75189160216673    9.73765918336705
H         6.03553387729553    7.34960981307766    9.26271838581266
C         7.92948018726169    8.30753934707135    8.96814503032726
H         7.84458489148687    8.34089347679184    7.89229708216637
C         9.05267802355713    8.82980592147950    9.58048279710897
H         9.84978409757641    9.25476805627620    8.98365725465917
C        11.96018885012310    8.30657171009572   11.45070666869891
C        13.18975721628641    8.57157307594532   12.05421811824587
H        13.29749448405994    9.45143924424258   12.67703353010557
C        14.26207847598251    7.72703166627874   11.84769105482973
H        15.21257202060304    7.93876000335506   12.31530450787907
C        14.12094785076713    6.61996310868331   11.02463656444774
H        14.96522627502478    5.96959535537358   10.84662770292839
C        12.90117090119453    6.35363646696583   10.42700231396486
H        12.78914448038672    5.49478335934232    9.78227077425386
C        11.81821119999047    7.19053550974917   10.63656301310257
H        10.87841338437006    6.98482706392210   10.14816520288194

