47
CSD_code = TIQGUX | q = 0 | S = 0 | Stoichiometry = C23H20AuO2P | MND = 2
Au        2.47407737847787    2.01933888242524    6.31988660918867
O         0.37238147522922   -1.27066447967998   10.08973063693846
O         1.44111443747562   -1.72627309788206    8.16385340650440
P         3.20498011035323    3.75659780930452    5.05055445977990
C         1.83018376528929    0.48679110470664    7.46381467791707
C         1.17777463458100    0.48836706106717    8.63434389264164
H         0.85529282939685    1.33719388313421    9.20850363206896
C         0.92647949548753   -0.88344484840520    9.09259453895373
C         2.03849586486046   -0.96830383411827    7.11682924144467
H         1.51489359717757   -1.22330634043770    6.18432337103819
C         3.51316873002775   -1.34441618495105    6.98398573670619
H         4.04383009693223   -1.06535724612879    7.89137956741648
H         3.95192359552422   -0.82359127176802    6.13669856068587
H         3.60632112795499   -2.41713103641895    6.83850035272925
C         1.92136017636271    4.89631986298510    4.45837914293717
C         0.62827438738902    4.39744541312410    4.33487558862815
H         0.42920257514178    3.36833593431157    4.60713105329781
C        -0.38748557667217    5.21556601910761    3.87498036445204
H        -1.39027508284314    4.82711365372487    3.77885700803709
C        -0.11666877153040    6.53373533504490    3.54538236980317
H        -0.90997075779842    7.17437917965866    3.19042382709089
C         1.16937457029219    7.03480908840818    3.67555967536285
H         1.37659269472981    8.06395938663139    3.42174326894227
C         2.19072269295989    6.22197372296326    4.13146571897939
H         3.19390642390344    6.61147508147593    4.23693514750475
C         4.38532071512542    4.86449614928225    5.87265625859322
C         4.15908516107293    5.12189935588015    7.22186994710287
H         3.32220023292362    4.64591900842281    7.71772361760946
C         5.00208622453557    5.96919352434828    7.91596138356255
H         4.82548114112682    6.16743751709936    8.96244781942044
C         6.07695543674391    6.55674175553708    7.26771455342439
H         6.73884548107408    7.21545934617062    7.80962745824406
C         6.30816847455047    6.29663295733802    5.92645443172146
H         7.14812348404388    6.75344541853537    5.42394909024312
C         5.46681935578321    5.45233456721975    5.22445266169141
H         5.65007637005704    5.24579573494303    4.17865218631289
C         4.08343614422098    3.26514767718951    3.54192907293741
C         5.19560343825480    2.44375807836730    3.72211205453842
H         5.49726779100873    2.17673208623370    4.72780700549549
C         5.90180771297573    1.98522675713726    2.62793859012854
H         6.76739915979388    1.35519285731431    2.76884238397480
C         5.49231999941598    2.33041626530404    1.34840125756594
H         6.04248347498530    1.97051419156518    0.49202084774059
C         4.37615340005548    3.12967005367258    1.16671343717377
H         4.05530754565477    3.39110407702967    0.16914522039965
C         3.66551239807147    3.59701272550422    2.25914526938339
H         2.79239638781945    4.21865681762735    2.11700360368584

