47
CSD_code = TIQGUY | q = 1 | S = 0 | Stoichiometry = C21H19ClN5Ru(1+) | MND = 6
Ru       -3.24121275207262    2.92097759850484    2.82787846075456
Cl       -5.34811365548765    2.13833612050889    2.19392888327550
N        -2.75545910668699    1.01091910912540    3.22279449202592
C        -2.93050751734865    0.32357172881264    4.34879222869133
H        -3.28528299537061    0.88655535411648    5.20443119588629
C        -2.69697572125464   -1.03525056477998    4.45188486304308
H        -2.86466606884057   -1.54179127061714    5.38805016008724
C        -2.25641821295213   -1.72523733269248    3.33004892935285
H        -2.06440769756042   -2.78527124423466    3.37358667187099
C        -2.08735144567997   -1.02675335706789    2.14934033810905
H        -1.76770700472937   -1.53622495635993    1.25542975665455
C        -2.35453103149198    0.34037542607161    2.11206455596558
C        -2.29025132350208    1.14979755368970    0.89479267950132
C        -1.94342990369073    0.72573733034499   -0.38491132898956
H        -1.62204729734057   -0.28629177678776   -0.56518424499895
C        -2.03706416404782    1.62733608800210   -1.43552255962515
H        -1.77192386883517    1.31963442756328   -2.43409648895689
C        -2.50572409322457    2.91343222753419   -1.20810622635806
H        -2.62119151844737    3.60172086709113   -2.02838559309675
C        -2.83818655246508    3.28560800598627    0.09144977894946
N        -2.68074491966083    2.41804225181537    1.10470671128413
C        -3.42788317092314    4.55114304259597    0.52876812443666
C        -3.77676568232101    5.58347280183998   -0.33977036220141
H        -3.58217331139630    5.48668159969484   -1.39498937997572
C        -4.39026056765409    6.71826381725113    0.15665765732864
H        -4.67753728840383    7.52075709330460   -0.50361521582694
C        -4.63873428490038    6.79567501798266    1.52072520915796
H        -5.12518400041979    7.65530474881248    1.95139053514197
C        -4.25792662187923    5.73931401533335    2.32733423488760
H        -4.44227651801549    5.77034688965106    3.39510479805868
N        -3.66323649232987    4.64302554494151    1.86302658063663
N        -3.81412446538154    3.48514908389371    4.68524585595695
C        -5.08253039895732    3.62996096340926    5.08107521674003
H        -5.83522403666693    3.35803990413385    4.35024996568521
C        -5.42652119794493    4.08179894448355    6.34231058732598
H        -6.46540947365583    4.17229974010718    6.61347381799404
C        -4.42103923973616    4.41370839147395    7.23792029815704
H        -4.65230269437168    4.77519519471951    8.22673942139807
C        -3.10287191539544    4.26696792136912    6.83041264165644
H        -2.28888828208953    4.50839018620335    7.49567532957632
C        -2.83670712701845    3.79476255309698    5.55605196878585
C        -1.42547121517406    3.55217127450452    5.07294485430490
H        -1.15364328218144    2.51376842561149    5.30167894575930
H        -0.72527472381716    4.21094384497346    5.60124492766117
N        -1.35674118767135    3.73021368298323    3.61412853455807
H        -0.50203667129998    3.30910736773365    3.25120904442399
H        -1.31573929970542    4.72831436326787    3.39603314494714

