90
CSD_code = TIQHIM | q = 0 | S = 0 | Stoichiometry = C46H30F6IrN3O2P2 | MND = 6
C         5.32965775215867   10.69343457511532    3.61905349722137
C         6.11479568593118   10.50133927704614    4.74388889524530
H         6.50021967268588    9.51337438565452    4.95282411274824
C         6.39972491420690   11.56833376951851    5.57756831330649
H         7.01059514643691   11.41888116524426    6.45668595984470
C         5.90071156657691   12.82592468070699    5.28360931683404
H         6.11833328399785   13.65866950814045    5.93634932254495
C         5.12300407195807   13.02112911327881    4.15235720144805
H         4.73711429309542   14.00416306027456    3.92534640384627
C         4.83611433009361   11.95589814747233    3.32102310899690
H         4.22313051374855   12.08557320489721    2.43987309304698
C         5.32410432878778    9.66441445838447    0.90623580396013
C         6.66945664263497    9.55612753359543    0.58638550850706
H         7.36399134014853    9.23844645106028    1.35166095972750
C         7.09934270710234    9.84193786839622   -0.69646773724939
H         8.14616553374557    9.75721140409802   -0.94949602051779
C         6.18315999746545   10.23841277455761   -1.65816656286952
H         6.51831362529103   10.46343551854396   -2.66020308847294
C         4.83894183102661   10.34493218886639   -1.33914090627103
H         4.12848997818996   10.65320348391580   -2.09293533931596
C         4.40824775328873   10.05841279117712   -0.05591689979136
H         3.36631479515521   10.12817421043531    0.21830707596354
C         2.23492792463852   10.58618860141728    4.79482052389466
C         1.55796714298561   11.61006504773708    4.14791667432450
H         1.08955682034662   11.40858692977030    3.19464757120859
C         1.49474505396089   12.86599276788190    4.72065375406368
H         0.96701594606053   13.66434763793069    4.21898106341173
C         2.11357805655813   13.10247279486339    5.93839487947391
H         2.06856493406376   14.08571149807809    6.38355258841133
C         2.78887295937865   12.08154785402408    6.58527165083254
H         3.27045590028262   12.26738644911220    7.53445137484167
C         2.84909252496998   10.82344135149611    6.01359132570551
H         3.37191314640701   10.01701053079639    6.50697128815603
C         0.74521252678482    8.47062433678398    3.47392334583685
C         0.22923995046005    8.73772077210772    2.21589515689863
H         0.83746250526025    9.27832707844109    1.50631260890766
C        -1.03901752678778    8.29525497466538    1.88437476145552
H        -1.44550252649855    8.50455445837939    0.90513710174087
C        -1.78743744069860    7.58182980043818    2.80656905873878
H        -2.77508130411096    7.23202137459461    2.54420004268213
C        -1.27245993537042    7.31337763275637    4.06498768478595
H        -1.85656982337041    6.75293753317288    4.77972229993255
C        -0.00793310326136    7.76169870653537    4.39883672480953
H         0.41722186370162    7.55987049362566    5.37240308959579
N         5.70166843924223    6.68157750157312    5.56270804736049
C         5.50402500030997    7.51815202708867    6.57444074895558
H         4.50600995620340    7.92252119545628    6.66292022235818
C         6.50130103041323    7.86636540797941    7.46722077042616
H         6.29338773227730    8.55377855026947    8.27129814086014
C         7.76223604685182    7.31611897865351    7.29429420208095
H         8.57176895205215    7.56955662645551    7.96143562392589
C         7.97042295529922    6.42951240636175    6.25258929329586
H         8.94329103950834    5.99267925580074    6.11067284880612
C         6.91952734518262    6.11523723233273    5.39234043709875
C         6.97082276849678    5.18719263993284    4.26542405880677
C         8.07969162599764    4.42970737868544    3.88880964246861
C         8.02361971797791    3.56799028729880    2.80284636123412
C         6.83613446017047    3.46604425592289    2.08841025390998
C         5.72593609348569    4.20871318651011    2.44600174143433
H         4.83010429606509    4.08943254960033    1.85728687662699
C         5.76448526896473    5.07870065364675    3.52907254110258
N         3.06977591334641    6.10501331328975    2.62325209593320
C         3.22354529037980    6.59242518868107    1.39850396209688
H         4.18069411057104    7.04183515012362    1.17186165656559
C         2.23113349113963    6.52467677594535    0.43837076949637
H         2.39969383133496    6.94409874566507   -0.54007030004429
C         1.03181170079446    5.91458855943818    0.77082471475966
H         0.22837640124979    5.84803731302841    0.05356928235049
C         0.88057863445350    5.37133998788508    2.03349872126809
H        -0.03822499781219    4.87864062705363    2.29714476412260
C         1.91982640667257    5.47908883523149    2.95535463177523
C         1.93932162100084    4.92327113604980    4.30592406738048
C         0.88345795435359    4.24993748674629    4.91807700540066
C         1.01047137157046    3.73103122385605    6.19897303707936
C         2.21662016467223    3.88691517267749    6.87023095778588
C         3.27096860114031    4.56494941490127    6.28560088409662
H         4.18270643474375    4.66568443043476    6.85362327842809
C         3.15641181809218    5.09957609789441    5.00844978871018
F         9.24483124578457    4.50166956298343    4.55918917943673
F         9.10234749596921    2.84794360847428    2.45667822294759
F         6.76979940321718    2.63485218751449    1.03674178209710
F        -0.30244219233330    4.08347468437291    4.30276421154304
F        -0.02183060259960    3.09073301202126    6.77166258428026
F         2.35374645609609    3.38186243868835    8.10655509728300
Ir        4.37389613234609    6.40598915325508    4.10118477192151
N         3.18632748557702    9.22041173269753    2.53143943615415
O         5.52423233309056    8.03613683067295    3.07417666991916
O         3.02022136818625    8.00286185736885    4.91382839108035
P         4.81314905109339    9.27665145914501    2.60007751690217
P         2.41776498791124    8.98612568534432    3.94658442006263

