29
CSD_code = TIQHUY | q = 0 | S = 0 | Stoichiometry = C6H12N8O2Pt | MND = 6
Pt        6.65299789952633    1.13852816162611    1.40160944538387
N         6.28017178895420    0.98628080053090    3.38291517790445
C         6.66801613385133   -0.08177690290398    4.07848239066585
H         7.16242160549514   -0.86333921372216    3.51000853789293
C         6.47640107604472   -0.17064171620112    5.44477329695945
H         6.80578724997597   -1.05121958248232    5.97181686877273
C         5.86752303205153    0.88143032786927    6.10999605639470
H         5.70569081880746    0.84028398620978    7.17609399411878
C         5.47960073310859    1.99228998068984    5.37739055480628
H         5.01186500688323    2.84021713980375    5.85077181902813
C         5.70531431005147    2.01024075195534    4.01387907270124
H         5.43598234507484    2.86095471682389    3.39547983399129
N         7.11072724145293    1.45531333776109   -0.58623651404002
H         6.64188457391163    2.35498658773218   -0.75303069362412
H         8.12053038791360    1.62478779320332   -0.59006541419955
C         6.75242750392569    0.46935712691783   -1.60538852744097
H         6.98151822687129    0.83750827822423   -2.60877757481457
H         5.68732073674233    0.24885083650290   -1.53945049303797
H         7.31315865160755   -0.44772465797389   -1.42901033036113
N         4.91885890888045    0.17409633303461    0.92714544237102
N         4.18500138950234   -0.25591689450067    1.73740007548998
N         3.40499624529926   -0.70473152266559    2.42658010492948
N         8.39656508338711    2.10489227916621    1.74695758520917
N         8.79790639192872    2.26496620035198    2.83700377249522
N         9.27621708334022    2.48314284648949    3.84106834465289
O         5.66390745279435    2.92844844735305    1.23032374615093
H         4.75451804242778    2.73737672217878    0.98323052521096
O         7.65135018255745   -0.64690449317204    1.43213338659405
H         7.08253989763256   -1.29979767080298    1.01479951579535

