98
CSD_code = TIQMEM | q = 1 | S = 0 | Stoichiometry = C52H37N3O5Re(1+) | MND = 6
Re        1.11751757950356    2.47012276496913    7.66798760780382
N         0.32789482330738    4.19232565193753    8.67439740878213
N         0.74739516989235    3.87594056381865    6.09047954522734
N         3.05371192340945    3.54462862117117    7.86033172757683
C        -0.40136441652455    5.39229491512545   10.62703755814534
C        -0.53714667133629    1.84385146938860   14.37483636881061
C         1.91359350426033    1.07545193167614    6.55159200754679
C         0.89480178356273    3.61319223618504    4.81038641435326
H         1.24302201001034    2.62021677021515    4.55526040196805
O         2.37535430961816    0.30042758808397    5.85000970151708
O        -1.72100074690843    1.28303272722434    7.34273060951671
O         2.87729222866229   -5.12911606934715   -0.14637313289351
C        -0.68701825474679    5.40976781372872   12.02032244421691
C        -0.92170578875878    7.77686917764379   10.48842470381802
H        -1.03526351564901    8.67373557710249    9.89903758456916
C        -0.63455534710404    4.18304313315792   12.82105348799637
C        -0.54231625040580    6.58039762225180    9.85595257249713
C         0.07714253104784    4.25194833869962    9.96396646243793
H         0.26671818544182    3.35350916680559   10.53798552069509
C        -0.47902654279324    0.62345648494229   15.18287239284805
C         0.63995506185538    4.52872046878917    3.77810938345145
O         1.66343979451293    0.83584720553338   10.24206884631002
C        -1.58134668912542   -0.21992798292059   15.28891463192878
H        -2.50290598446299    0.03866448934857   14.78843379939231
C         1.07479285456452    2.82054186523915    1.98734734387992
C         0.10813902063498    5.30146536291542    7.90619689398903
C         0.32314884548996    5.11991628608486    6.46534944463665
C         0.77932691902090    4.19518102712425    2.40239578214198
C         0.27582157481198    5.85110312739034    4.15777136985808
C         3.46237487797480    4.02521127563695    9.03579661543069
H         2.83775514604107    3.81773118792647    9.89575320593030
C        -0.66315359458791    1.69165863203938    7.46708057232142
C        -0.29138360000767    6.48852239427814    8.47383225509242
H        -0.42067777665709    7.37317954186542    7.87170866025630
C        -0.37250525680131   -1.71154844755020   16.73429911524158
C        -1.02801402986920    6.61529137672824   12.59883859507000
H        -1.24276700301194    6.64876827466918   13.65615833787387
O        -0.21253760848268   -2.81136600251453   17.50737372613397
C         1.46931899700613    1.40516718322447    9.27065042579681
C         1.67101085263392    0.18839362029766    1.21046361560781
C         1.99371042051777   -1.18820971255242    0.82745006584435
C         0.63241408127094    0.45339901132328    2.10433522731738
H         0.03677791573975   -0.36205741452881    2.48515006237263
C        -1.53915473945070   -1.36882057924263   16.05580857908734
H        -2.42058080971750   -1.98683071258430   16.12079799210134
C         2.09211607808428    2.56210919186927    1.06950142165796
H         2.67423034159074    3.38380833587729    0.67746354270558
C         2.60321098356199   -3.82564755370455    0.09759309067846
C         2.34700907629828   -1.50712531918516   -0.48011809956194
H         2.36363542356589   -0.73317843959271   -1.23347758880297
C         1.95232449199828   -2.21830098461271    1.77020535281630
H         1.70537238878336   -1.99411520753977    2.79737004194187
C        -1.14165142154541    7.78655854682415   11.84163884604548
H        -1.42569637638997    8.70372815974550   12.33469742250906
C         2.25813521703671   -3.51100188417292    1.41560520706921
H         2.23871097716801   -4.30804032282564    2.14167734665533
C         0.11109644269051    6.10765016576200    5.53216773838378
H        -0.19104202726953    7.09736907813193    5.83387816292859
C         0.09499792280882    6.83139786727106    3.16666717309960
H        -0.19007459147053    7.83090472464879    3.45714670869166
C         3.82568709101454    3.77308642998534    6.79668816696736
H         3.49411556857101    3.36199188059437    5.85130232207243
C         0.33773850895235    1.74464293368571    2.48626476360219
H        -0.49755808614438    1.92914184604528    3.14775682865903
C         0.61968973725923    5.19948669217888    1.47016592339591
H         0.72666380829262    4.96573116535634    0.42178787217495
C         2.38748538572102    1.26865677104711    0.69311936321201
H         3.20004481876624    1.08741928237987    0.00602495478167
C         0.68480128431481    0.27448564788183   15.87252113537208
H         1.56336633748866    0.89690338173587   15.79009418564577
C         0.28254253263036    6.50407375913732    1.84860718888345
H         0.15187806126430    7.25422720573347    1.08361189703448
C         0.74110720788909   -0.87257587858994   16.62834112492266
H         1.64060849515088   -1.15111225845003   17.15385899443317
C         5.00754908969553    4.48903448197694    6.85986391626491
H         5.59063333184507    4.63938196464825    5.96570067612336
C         2.64169402396312   -2.80591083812293   -0.84981131269415
H         2.89636747180252   -3.01236733550469   -1.87719354357087
C         0.04343588282098    4.16430479459212   14.03963175109739
H         0.54867609697129    5.05703247759760   14.37952032318805
C         4.62916121432415    4.75155585306486    9.19147214950108
H         4.90858865970780    5.11251103203345   10.16807578188408
C         5.42278087012591    4.99408063754836    8.08166095566897
H         6.34095710004695    5.55357717835911    8.16770000034362
C         0.09855357707347    3.01320139819668   14.79637487345889
H         0.62287534969507    3.02260154463416   15.73979241450778
C        -1.23576258097773    1.87382629539999   13.16704422170052
H        -1.73434156581518    0.98289412699961   12.81686508815762
C        -1.28226739066392    3.01965633839590   12.40154619223625
H        -1.85603020968570    3.02676475028935   11.48499952074543
C         3.23092340006011   -5.51832205217417   -1.45322490503849
H         2.42353094800987   -5.31659855568415   -2.16396770517397
H         3.40550672188565   -6.59156123430541   -1.40291904708009
H         4.14559110624502   -5.01879379830529   -1.78723762569771
C        -1.29176678082834   -3.70493973089682   17.65359055743223
H        -2.15418925103672   -3.21951334673401   18.12075922567723
H        -0.92976845140455   -4.49838629463169   18.30493685451587
H        -1.58995007629249   -4.13430286794699   16.69208261427423

