32
CSD_code = TIQNAL | q = 0 | S = 0 | Stoichiometry = C12H13Cl2N4Tc | MND = 6
Tc       -0.21049575875330    9.70948497492268    8.08686637408905
Cl       -0.16300278012266   11.93770343037276    8.61640457085714
Cl       -2.49968039369609    9.75736101362965    8.00969462700174
N         0.08919723914717    8.97142320474984    9.58765129232797
N        -0.25075854563046    7.98242437466421    6.94273514306525
N         1.76048354267788    9.85872584958096    7.46441744101167
N        -0.40561166554117   10.52539471931508    5.90709247792227
H        -1.10625371587416   11.25526512613870    5.98104891769761
C         0.03368289598410    6.76727383316191    7.43564008102529
H         0.14486492935169    6.72542556232577    8.50880639257776
C         0.17257166182895    5.64669699014519    6.64620732844319
H         0.39617190009366    4.69670604908764    7.10284247333559
C         0.01719401131750    5.76310987028141    5.27057634713750
H         0.12408977371327    4.91013501755657    4.61966424166232
C        -0.29600006636885    7.01066361071585    4.76008852979033
H        -0.44837078215931    7.15323418046105    3.70096392704051
C        -0.43753137850951    8.09144906710884    5.61720794595131
C        -0.89066518926575    9.42919515828112    5.09204452804689
H        -0.60176089086537    9.53356034434911    4.03391904545470
H        -1.98618090673134    9.42780174584033    5.14875924488712
C         2.78913542693592    9.33598166512775    8.14930886615021
H         2.53867320916247    8.95662926713224    9.12865225572499
C         4.07455075768835    9.28335786178030    7.65626489842740
H         4.85949172460023    8.85527158878728    8.25760023511968
C         4.33576350757916    9.78922836384625    6.38904501254194
H         5.32751964962145    9.76067137135086    5.96694774318633
C         3.28170301008773   10.34784732991858    5.68761078895270
H         3.43294602823819   10.77428808662418    4.70753742329075
C         2.01647243522088   10.38122187138249    6.25390489774480
C         0.88361840713223   11.08569594406697    5.55326120787169
H         0.90456494998740   12.12574197160204    5.90126793279466
H         1.05731701315107   11.08403055569329    4.46526780886995

