37
CSD_code = TIQPUE | q = -1 | S = 0 | Stoichiometry = C14H16CuN2O2S2(1-) | MND = 4
Cu       -1.16953190033671    1.52843783405840   13.57741542095359
S        -0.39278125228059    0.00249761335954   12.26455103392077
S         0.64425745028147    2.70090829807165   13.57466959140800
N        -2.64612475701091    0.49348747216362   13.87965868920043
N        -2.01816225548204    2.89104299278482   14.45184304387440
O        -3.72561418461819   -1.51222752849406   13.61294359799349
O        -1.99994604717457    5.06755565466527   15.17518515424405
C        -1.45897189478329   -1.35515507585999   12.88746977510161
C        -2.74989253599391   -0.78538009109054   13.48101303409800
C        -3.63697079558871    1.18891654378217   14.57925090061638
C        -4.87934649193472    0.69414684496804   14.95190436384942
H        -5.15796159012469   -0.30824040455735   14.67389913927119
C        -5.74156127797472    1.49202300772553   15.68588672413567
H        -6.70639480327673    1.09893871787042   15.97722180875438
C        -5.37569566040220    2.77541903908526   16.04753227932241
H        -6.05261146931273    3.39229299383075   16.62333052214309
C        -4.14337969323028    3.28707870863283   15.67584521184439
H        -3.85648331119230    4.28852864543950   15.94888272483154
C        -3.27170240121740    2.50306576726394   14.93247255704955
C        -1.49793210555591    4.12310369966140   14.58084438389513
C        -0.18958373471016    4.31873578392556   13.81040828834927
C        -0.72668539830158   -2.07698222238576   14.01904438424733
H        -0.48821085907428   -1.37350161075920   14.81667862195327
H         0.20123759897255   -2.50543460926535   13.64549245659888
H        -1.35852277662428   -2.86789946643772   14.42195824755145
C        -1.77871498255695   -2.30649220378486   11.74226370560538
H        -2.20117452667806   -1.75179140842600   10.90762950340631
H        -2.50752802082435   -3.03969080275841   12.08376574366978
H        -0.87421701518083   -2.80819335176141   11.40710960603423
C        -0.55630546669127    4.88591020807305   12.43864597545309
H        -1.20160936252621    4.18633607189474   11.90689699528566
H         0.34524955364849    5.04181113861760   11.84944888476348
H        -1.08302906627392    5.83217781985305   12.55825350630917
C         0.73828462798264    5.25931860338907   14.56652027791788
H         1.06672096722082    4.79065061738894   15.49121573233298
H         0.19704768927646    6.17282308908811   14.80717775635658
H         1.61154774954957    5.49178160998769   13.96197035765798

