90
CSD_code = TIQRAM | q = 0 | S = 0 | Stoichiometry = C38H38AgB9N2P2 | MND = 4
Ag        3.07309780648992    1.37739077797427    9.76951641548332
P         3.92060716054310    3.15418046164344    8.17197430000390
P         4.96259661143656    2.53118895773595   11.03328946853391
N         2.46985967552363   -0.84436276569255    9.39801974164348
N         0.96120346344788    0.99112880640521   10.76451009259664
C         3.19043067873832   -1.72822379118313    8.72994159376903
H         4.15658764766887   -1.39063637123984    8.37893807387638
C         2.76421410526683   -3.03153268343909    8.47684598173069
H         3.40002107086444   -3.70556020652794    7.92488985219360
C         1.53568396306265   -3.42967219821158    8.94492946748745
H         1.16637501370789   -4.43077391507873    8.77634297563242
C         0.74399644552834   -2.51298564050214    9.66273083432724
C        -0.52731254888591   -2.85958013804432   10.18281605037739
H        -0.89503608695605   -3.86056140168181   10.01137697232829
C        -1.26423847380168   -1.95664839571878   10.88469225793832
H        -2.23096453597947   -2.22312161664618   11.28605017041504
C        -0.78437957454419   -0.64231480241629   11.10609864754457
C        -1.52303354992692    0.31384457978458   11.82875273608281
H        -2.48755963906612    0.04419554285643   12.23368175109562
C        -0.99941180502611    1.57201220288969   12.00475905051167
H        -1.53439062664423    2.32985832849602   12.55553203553544
C         0.24583244918648    1.86454971209656   11.45156606379432
H         0.68111699475350    2.84774553532983   11.57239152369474
C         0.47662619324995   -0.24958727810673   10.59106505493727
C         1.26239490594694   -1.20886378541252    9.86233775717320
C         3.64495561022345    3.32686321002104    6.37727852179172
C         3.51810281449101    4.53591180878198    5.70482972771969
H         3.58358159981980    5.46834020407347    6.24556781930634
C         3.30432427690378    4.54758521241147    4.33767125681934
H         3.21313338390684    5.49107959353192    3.81905790317453
C         3.21027009056335    3.35978538225483    3.63269816681535
H         3.04847748183561    3.37588385012449    2.56492344373327
C         3.31320217280333    2.14990276809383    4.30101083981524
H         3.22884911505683    1.22122311434127    3.75528779479638
C         3.51947291118878    2.13558077004745    5.66622876347324
H         3.58625609337976    1.19511668822968    6.20185720807163
C         3.44420758072474    4.81041900130039    8.79632490288235
C         2.22608471170726    4.88823843433974    9.46317653865297
H         1.63851679694736    3.98135781992399    9.58060629255691
C         1.76792471617273    6.09104963487013    9.96480203059585
H         0.82242062580054    6.13849382314099   10.48589460332447
C         2.52558607060655    7.23810551471439    9.79606860750810
H         2.17070701604974    8.18172143792850   10.18359590928200
C         3.73981864374456    7.17148090629412    9.13388268738594
H         4.33188806207793    8.06573750863116    9.00273151727083
C         4.20414066286575    5.96460659198834    8.64112205836144
H         5.15850063463734    5.91655649936196    8.13804795183669
C         4.50490461054364    4.12418619829407   11.81836075767042
C         3.44120914378458    4.03679141805658   12.71443922474447
H         2.98374789527704    3.06794605316311   12.88609356589480
C         2.97961244428852    5.15576645612387   13.37714050166525
H         2.15614081351648    5.07472700283649   14.07249534092933
C         3.57612978576993    6.38574456960087   13.14669842232770
H         3.21828976612447    7.26554500667557   13.66090671186052
C         4.62889283303332    6.48279466242378   12.25466364523214
H         5.09568175751926    7.43995922384039   12.07348375382101
C         5.09184497746667    5.36006856821107   11.58960210933244
H         5.91374002648311    5.45183454182107   10.89761609189592
C         5.89749338701549    1.79603475313622   12.41678105677403
C         5.93809712275142    0.40616206976250   12.48580782392142
H         5.41054809645299   -0.17283316914690   11.73541716411540
C         6.64302241277403   -0.22629180715742   13.49092375680679
H         6.67607287400231   -1.30535795426457   13.53375884581292
C         7.30672194700789    0.52712364251276   14.44645028011632
H         7.85907765117897    0.03604089113006   15.23401981791792
C         7.25699158023165    1.91006329730222   14.39316893421866
H         7.77063851918738    2.49725753980223   15.14054495624496
C         6.55494271491397    2.54614980007796   13.38525676193710
H         6.51746887807900    3.62513842965126   13.35090555446195
C         5.74873353379006    3.13555460482918    8.33757265141207
C         6.25013324635288    2.87091446566309    9.77180696541216
B         7.65796111959308    3.64736850102298   10.07123310243856
H         7.94038371072615    3.96824836795849   11.17451618008657
B         8.10806815398046    4.47936519120125    8.37850707846964
H         8.80737166729399    5.42341858388602    8.23001701612184
H         7.41641649385730    4.77280724888210    9.41736150837217
B         6.72793655983481    4.03128478536918    7.40366829802545
H         6.24302087840314    4.71069740406768    6.56228485697399
B         6.37815560505929    1.53507756730027    8.66642333342197
H         5.58847828895326    0.65373362064068    8.82922766974786
B         7.71757997429359    1.88177307155202    9.74466877298712
H         7.93464265730883    1.19327348828098   10.67470278266972
B         8.86438020351651    2.91865216696060    8.91137040483136
H        10.01479007188235    2.85962177609136    9.16666372694020
B         8.24394587767339    3.11109040373805    7.24486227058539
H         8.95660770690399    3.27099900409250    6.32032555258510
B         6.71568697188635    2.26974112572315    7.11916813895971
H         6.19674483424313    1.84015857852611    6.15298763068496
B         8.02836853961018    1.54499322748531    8.06696163676170
H         8.57348625129358    0.56046593327054    7.72012193087216

