71
CSD_code = TIQTAO | q = 0 | S = 0 | Stoichiometry = C32H30I2N6Pd | MND = 4
Pd        6.23953875351633    7.05467863019513   11.67889951304231
I         4.84772050746803    5.20298292459380   10.45055872699108
I         7.99527124005465    8.72936735427703   12.68596608331831
N         6.27233300944678    8.25007227648466    8.85404322498117
N         5.74579038161173    9.26653724071180    8.13806083037691
N         5.16588453380800    9.42356665473638   10.23975102998087
C         5.93191268032088    8.30604021090164   10.14774130260506
C         5.08094918264910    9.96572025338112    8.99433848071130
C         4.49359241255726    9.87098532611570   11.44339231414173
C         4.23294610355903   11.37510453718640   11.39162222485857
C         3.20433809188967    9.10138557210151   11.67821200603688
C         2.53896201893831    9.27682488933839   12.88816282155618
C         1.35924139420435    8.60428170169286   13.14430409269947
C         0.83254296011054    7.73894585046562   12.19901144930789
C         1.48480954967309    7.56213499102360   10.99266840176631
C         2.65889421411813    8.24794135874717   10.72766341225926
C         7.00612412044570    7.23999514139100    8.21240923194148
C         7.97147980593807    6.52933267184298    8.91463878066707
C         8.62701473190101    5.48829695169808    8.28149488204906
C         8.33922541933723    5.17693977985825    6.96315456563185
C         7.39954604730667    5.91452998796298    6.26251415614149
C         6.72463675867210    6.94678427668760    6.88489085726450
N         7.34583450547022    5.24701594827146   13.92497908797408
N         6.97524960063685    4.71303128117354   15.10906407250136
N         5.30040905590639    5.75575706020711   14.17186355147643
C         6.34560554946442    5.90400200008225   13.32322146001222
C         5.73100161985183    5.02968715137281   15.23775758084704
C         3.97396259082660    6.33387215027845   14.01139444456034
C         2.92978599234520    5.22906157393358   13.92169622231737
C         3.76830642991685    7.33953918033198   15.12480774483102
C         2.74918784408288    7.25279873153834   16.06044289941621
C         2.63784846879981    8.20906056630937   17.05700936411238
C         3.54368534101326    9.25172897433255   17.13523652860179
C         4.56745753909832    9.34285713511624   16.20647632626005
C         4.67216051588771    8.39353012306477   15.20914279631453
C         8.67522065635843    5.15630014882984   13.48473959627725
C         8.95181630217731    5.16350581646337   12.12307679761190
C        10.27204890698677    5.15083696255568   11.70945912831661
C        11.29705077257722    5.11023090487863   12.63984583118815
C        11.00831052230210    5.06982063503083   13.99376849765625
C         9.69561736874606    5.09709172567872   14.42383606602874
H         5.17624041906322    9.66621584934689   12.28644812523808
H         3.45331996022865   11.61181638760760   10.67034008635910
H         3.90443845851377   11.71882919552879   12.36800446012393
H         5.14504230473789   11.90836496397492   11.13045190752269
H         8.22579713625991    6.81739202119953    9.93621840526630
H         9.36568894336709    4.91032843351858    8.81498652666515
H         8.85220721568507    4.35877556873933    6.48104210700356
H         7.18075212348153    5.67733803480057    5.23269485886660
H         5.97675712115880    7.52497826714965    6.36543726551512
H         2.95148094576003    9.93616603507336   13.63752141595750
H         0.85691594161175    8.75332060729896   14.08849981390924
H        -0.08605308922165    7.20791556400149   12.39989529285888
H         1.08844066834038    6.88655615203639   10.25049972791691
H         3.13560667525655    8.10093369350941    9.76881294732655
H         4.53839805759341   10.85235560786198    8.74523012914577
H         3.99284320914230    6.88618181299840   13.04753764268363
H         2.90608392450787    4.63185105755824   14.83068480672367
H         1.95098782026401    5.66763208624734   13.74937686957647
H         3.15942623199589    4.57460486981170   13.08307510294048
H         8.13304508860625    5.14371485180953   11.40228994920700
H        10.51002847859111    5.17515925471355   10.65724895415648
H        12.32364100676227    5.10753880974719   12.30647686717857
H        11.80727531836773    5.03109291707860   14.71815031289422
H         9.44469364181794    5.08378079677923   15.47276931125758
H         2.03234085632512    6.44801780684632   16.01872756544218
H         1.83740768936973    8.13411517435959   17.77834737928021
H         3.45306129162319    9.99162261314184   17.91630230425892
H         5.28219055306620   10.15062234648597   16.25607502158968
H         5.46959641053373    8.46897931415707   14.47936118452345
H         5.12253209723460    4.76782325588858   16.07787727395067

