116
CSD_code = TIQWUN | q = 0 | S = 0 | Stoichiometry = C44H68ClIrP2 | MND = 5
Ir        0.31715391616537    4.74238649981900    7.51265768052138
H         0.69875627750805    5.22606053291888    8.90799508781506
P        -1.41992073896511    6.20956071393877    7.32558598624322
P         1.64556698171865    2.89150266560258    7.63214735495585
Cl        1.13716943001803    5.31647739556081    5.38414674433799
C        -1.01036629781088    3.61880199410698    8.56325731509465
C        -2.31617436903721    4.10085018252489    8.78051037091842
C        -3.33160951633086    3.21179910498041    9.14738102546114
C        -3.03006574071158    1.87281912626794    9.32581075213950
H        -3.82389052965899    1.18399082346375    9.58007587001630
C        -1.73554639206048    1.39607650980740    9.21210604256434
C        -0.70441132202807    2.27763325877634    8.87029278793282
C        -2.59607935176889    5.52487484491701    8.55011531962710
C        -3.51924875677516    6.32303884329438    9.09731222461508
H        -3.52630708810309    7.35340998924490    8.75969099273377
C        -4.52412127648046    6.11482626986906   10.19623595828991
C        -4.71929938656971    4.65011621620313   10.59786023100772
H        -3.91511907377602    4.34543524367698   11.27013877741255
H        -5.65916940378670    4.56327421756771   11.14744122712023
C        -4.72390414772401    3.70547014172134    9.39077488615003
H        -5.38198307160984    2.85585094575313    9.57987129118559
H        -5.09925868528276    4.23448028839651    8.51127306799743
C         0.69058240008054    1.82758922361418    8.77767560081683
C         1.32337795272294    0.83024318110834    9.40718273673131
H         2.37623971550920    0.71185435381264    9.17521767372467
C         0.90622665052790   -0.14392518378296   10.47377975810829
C        -0.59529189185770   -0.14874300892204   10.77045784418859
H        -0.84224914717172    0.69278306664235   11.42046146807304
H        -0.83876957387688   -1.06590398781501   11.31135314939405
C        -1.44529575719436   -0.04419429616831    9.49996109119382
H        -0.91117613956248   -0.49704389579977    8.66126836878398
H        -2.38500226774614   -0.58306404694616    9.63159887782551
C        -4.02613644962108    6.90944240476128   11.41473939689040
H        -3.04787450151018    6.54850730273667   11.72478108402274
H        -4.71932661122610    6.79551054992444   12.24538320639099
H        -3.94403932234531    7.96795544510275   11.17736434860602
C        -5.86535970539342    6.70769712027387    9.73913380169358
H        -5.74548016845466    7.74428122130223    9.43081665262074
H        -6.58778977988938    6.67583561200106   10.55201638498206
H        -6.27100344013115    6.14738984370778    8.89943995684160
C         1.66889996632093    0.23653342953227   11.75357333571097
H         2.74359223775236    0.18361122046039   11.59310517264056
H         1.40762482381183   -0.44386375346281   12.56120030628029
H         1.41457040852768    1.24991674669032   12.05672398723149
C         1.35271298730118   -1.54820869701063   10.03869061186349
H         0.80828084185322   -1.87225569372689    9.15432046465159
H         1.16793658632352   -2.26572179059141   10.83540675429470
H         2.41598832814339   -1.56193662907597    9.80790953137673
C        -1.23499471453166    8.02637674913863    7.64014140185294
H        -2.20817700571274    8.53073971602801    7.60766721369688
C        -0.60351743821383    8.21818852818768    9.01804495900573
H         0.33592963179268    7.65913082114808    9.04867007137154
H        -1.25719539835377    7.80461564068390    9.78911117354642
C        -0.33003438097144    9.69462109344465    9.28747357579699
H        -1.27310672765558   10.24804607671210    9.29105128215956
H         0.12872580911193    9.81094319252529   10.27130782444869
C         0.58819102419755   10.26537140159095    8.21137700640431
H         1.54616123734410    9.74262027300691    8.24263885388349
H         0.77540448907757   11.32471179597558    8.40029612097903
C        -0.03855240831874   10.08485224942230    6.83270097130649
H         0.63041285512139   10.47754019060073    6.06422560220972
H        -0.97275845010814   10.65172168836190    6.78280188546998
C        -0.32479160599587    8.61132905682030    6.55927897352872
H        -0.78750606599618    8.50684069693023    5.57496739729163
H         0.61292158886914    8.04970628341749    6.54712414861414
C        -2.36191178980682    6.09327392518211    5.72648504945560
H        -1.65527498827188    6.40811218232758    4.94752967398814
C        -3.62075134458847    6.95363148002220    5.65863503668323
H        -3.37493468779259    8.00973872752219    5.78652756938266
H        -4.30198425374354    6.66005855896696    6.46168203708100
C        -4.31447768517594    6.76608851381612    4.30974223994453
H        -5.22167728427076    7.37417512491507    4.27672069308278
H        -3.65166098440273    7.11194385083590    3.51264233994140
C        -4.66062225303470    5.29952150451309    4.07364538713074
H        -5.36572184935290    4.96459514332262    4.83871397257794
H        -5.14230406113633    5.18294710592145    3.10049191886022
C        -3.39980170949512    4.44377636002008    4.14060411006813
H        -2.71484249213254    4.74013473215157    3.34259903151377
H        -3.65158263509521    3.39108652453692    3.99258217409549
C        -2.71565628984131    4.62566613656243    5.49033615790465
H        -1.80586104354242    4.02065893493696    5.52865793635727
H        -3.37899387611839    4.27342743922492    6.28545859569320
C         3.39602807347021    2.96086429806427    8.23926343867863
H         3.84407370549765    1.96039681875898    8.26095195468033
C         4.18868827422301    3.85115272984051    7.28122399632003
H         3.68659619209471    4.82013633506123    7.20890339434878
H         4.20684338621370    3.41068218566628    6.28141220958523
C         5.61725560106431    4.04720683847344    7.77948846527214
H         6.13269564582833    3.08259204199075    7.79405298707995
H         6.15853995194274    4.70347423837524    7.09501266158650
C         5.61985746495145    4.64200873076485    9.18392378250810
H         6.64667568323991    4.76443350590676    9.53544593148288
H         5.15185715136771    5.62803666136113    9.15850408843337
C         4.84222502049696    3.74253565740251   10.13935582570546
H         4.83277145461625    4.17907718203003   11.13999293847834
H         5.33604591665926    2.76910909525693   10.20439722890253
C         3.41062157746749    3.55841682216631    9.64503682704185
H         2.85301036174809    2.91617256380394   10.32970982566120
H         2.90410206003474    4.52681449887453    9.61536088542066
C         1.71724475074237    1.89338559089585    6.06537427002651
H         2.20907476720061    2.54520491703324    5.33135694083424
C         0.28052007660100    1.65203284560307    5.60448297580253
H        -0.25063105491850    1.05246256295127    6.35012700665250
H        -0.23629552036887    2.61151977435045    5.51987756042438
C         0.25471028878476    0.93854771907554    4.25806751909387
H        -0.77923568188592    0.76276701762352    3.95192312446194
H         0.72389800818527    1.57439572614642    3.50352770290395
C         1.00807779205001   -0.38451273568384    4.34831989936821
H         0.50368068964461   -1.04036622670946    5.06262303202950
H         1.00662664290084   -0.88351269895341    3.37691352653546
C         2.44271612582992   -0.14348084623182    4.80679269949620
H         2.95950112594197    0.47063196124378    4.06512540283736
H         2.97558406652187   -1.09435948512520    4.88288376785523
C         2.46907371016383    0.56896752344367    6.15873521015865
H         3.50769906907894    0.73334298011288    6.45320725321090
H         1.99350481090372   -0.06585407503825    6.91065072274948

