36
CSD_code = TIQXIA | q = 0 | S = 0 | Stoichiometry = C18H11ClMnNO4 | MND = 6
Mn        2.86590881496209    8.27672280366114    9.95573591589025
Cl       -2.06174386451400    6.79974542889759    7.54751811758612
N         2.13465191113992    8.46768444272423    8.04764494006208
C         1.01564165358808    7.44538802415092   10.13147389102337
C         0.25342500927340    7.43580847612145    8.92957566905783
C        -1.03394848397676    6.88321612797691    8.94268791534321
C        -1.56869326673490    6.35523926995421   10.10523978157022
C        -0.82848320229238    6.36729251472944   11.27264933675397
C         0.44815827571650    6.90295804911566   11.28216709134729
C         0.94572280738753    8.03141035212903    7.79129449944101
C         0.34870183694176    8.14613133311769    6.42860286296013
C         2.92806071710541    9.07182477019957    7.03965738861245
C         2.90379125908501   10.45313800172099    6.87129159047438
C         3.71740203370748   11.04303519915785    5.92180644574810
C         4.55350311233778   10.26513412044720    5.13826291503211
C         4.57594747794476    8.89046307017294    5.30478220174299
C         3.76582373285542    8.28944853496576    6.25042824603562
C         3.14221582626091    6.54316102017661    9.61487601611792
C         4.43613404097963    9.01352148689374    9.47607305320084
C         1.91175486915856    9.72222397149778   10.40049196853375
C         3.39394579135705    8.06567203658466   11.64854859392922
O         3.18030377663405    5.41337922179967    9.43305731087088
O         5.43418281563180    9.48164285583287    9.16609676922693
O         1.19213976507149   10.55966785424974   10.70211562397628
O         3.72719479588883    7.92838124137196   12.73863265942243
H        -2.56270775785645    5.93625940799788   10.08898896049839
H        -1.25022583669712    5.95501828033376   12.17706502967300
H         1.00711138124050    6.89531561610174   12.20895546246400
H        -0.57605212422221    8.71884729555205    6.47300675891403
H         0.10910666583969    7.15731644837587    6.04100296571859
H         1.03721440790514    8.63740173912522    5.74386096474056
H         2.25554025512685   11.05356057649844    7.49458811920377
H         3.69850632087672   12.11509596975993    5.79658190783597
H         5.19073178831035   10.73038424340396    4.40197215747730
H         5.22781993764244    8.28088988473537    4.69747576277687
H         3.78431345632485    7.21802033046521    6.39459110673840

