84
CSD_code = TIQXAV | q = 1 | S = 0 | Stoichiometry = C41H38CuN2P2(1+) | MND = 4
Cu        4.07335547208712    3.68797900594843   15.72261183161001
P         3.16741324510220    5.83252041987790   15.56986278611837
P         2.64201928817623    2.85434288627293   17.25739001566008
N         6.03177435960585    4.37610135390149   15.90498529293338
N         4.64584233154376    3.44209012898804   13.78216232811278
C         6.67820073000866    4.81751426251759   16.96516293070391
C         7.86238235298646    5.56467576905406   16.84234184139672
H         8.36394297074191    5.90651294460939   17.73412503561615
C         8.36296030013735    5.84800461667390   15.59832522641202
H         9.26856137346179    6.42390556312394   15.48009216038766
C         7.68722445251136    5.37666527087495   14.45890077646670
C         6.50945113905205    4.63255656456542   14.67275707895611
C         5.77737913881439    4.13467571946419   13.54862575238956
C         6.24969105032688    4.39065222211037   12.24565200963166
C         5.48929106507993    3.88177624504693   11.17690846709423
H         5.81581997570123    4.05269322598312   10.16191403272280
C         4.34428106120550    3.17595018813678   11.44186947252606
H         3.74340516649350    2.77193523727892   10.64233632889229
C         3.93998162999116    2.97134826917817   12.77268293516465
C         8.13252452068634    5.62076794698217   13.13098750763525
H         9.03621070668472    6.19493816544392   12.99389524079100
C         7.44224825711431    5.14432019551295   12.06617134647213
H         7.78212583792507    5.32852839031583   11.05818916121849
C         6.12876415524711    4.48923803422934   18.31260075795137
H         6.07605469606061    5.38059923566904   18.93493805965415
H         6.78081513855472    3.77526828726148   18.81509288412044
H         5.13968784732521    4.04407921942796   18.21097637418653
C         2.69559161364411    2.21033050389274   13.07717761481527
H         2.75822282221227    1.20488581707793   12.66430445236323
H         1.83342476261953    2.70054611257473   12.62754825106548
H         2.55287362849374    2.14612546123112   14.15490610763344
C         2.76002699227512    6.33740755923326   17.30448881924958
H         3.66146603350874    6.23190671360114   17.91395794591642
H         2.46691833559287    7.39342891443986   17.28829966018211
C         1.62721018748217    5.49126169436330   17.89149802143492
H         0.85876455139255    5.35318786768042   17.12621725114708
H         1.16992222920738    6.05534031449994   18.71004801709692
C         2.06460117078171    4.13961110609848   18.46494548969112
H         1.23793974766507    3.70272145327075   19.03613006763809
H         2.89733589847364    4.29241509577685   19.16073846483923
C         4.35804282442026    7.07243302176715   15.00127256629529
C         4.54574792536560    7.15754574061614   13.62062198956953
H         3.88272265751163    6.60665899789900   12.96420706871861
C         5.55182816553433    7.94447472469375   13.09815631796103
H         5.68178821226338    8.01496307451584   12.02860845538268
C         6.39779036799684    8.63955323803251   13.94901643857811
H         7.18688407074266    9.25319906347895   13.54248263047208
C         6.22811452667138    8.54713796329004   15.31989931477904
H         6.88572654163397    9.08966650854773   15.98285593180333
C         5.21878290278079    7.76185004052620   15.84886228914693
H         5.10047958949868    7.69543141923328   16.92046340610246
C         1.62413622540970    6.30183152457201   14.72591011262909
C         0.72837878021188    5.27550113085018   14.43960508923773
H         0.99451159506383    4.25595702603841   14.69460057450106
C        -0.48581251088455    5.55906167302516   13.84161894196879
H        -1.18180826187800    4.76130262546160   13.62804815893411
C        -0.80231639710596    6.86810790010141   13.51626437257327
H        -1.74726438940969    7.09302446178740   13.04587581670228
C         0.09275511772737    7.89109412084270   13.79048170080465
H        -0.15747697194344    8.90935447543736   13.53340382422235
C         1.30441783432989    7.61480386345818   14.39682392206871
H         2.00362468628424    8.41104129905795   14.61219871182767
C         1.11580327383463    2.02437817677522   16.71098276642758
C         1.29156104299165    0.77474067747176   16.11543785796913
H         2.28832341472787    0.35512739208549   16.05704734307546
C         0.20697446828369    0.07580593672957   15.62410619328608
H         0.34939100391252   -0.89573775202363   15.17577084589406
C        -1.06418190238831    0.62364402304436   15.70878148930143
H        -1.91364328436108    0.07966471644672   15.32546071141556
C        -1.24259154416664    1.86834569895019   16.28748826254405
H        -2.23167405612800    2.29621485734515   16.35555285105348
C        -0.15912329227361    2.57252109505489   16.78578244569943
H        -0.32111806722781    3.54028459009303   17.23533929145306
C         3.30940043899465    1.59565761005470   18.39007475863076
C         4.62335234731600    1.18161667553241   18.19981845670005
H         5.19832030534054    1.61633231149776   17.39016345393943
C         5.17477222479900    0.22127398098599   19.02900118613968
H         6.19452561392931   -0.10068489431839   18.87996891288327
C         4.41344877757578   -0.33066429875253   20.04598952580097
H         4.84119256545167   -1.08070977682994   20.69341514365696
C         3.09857739445020    0.07023248560812   20.22885640643573
H         2.50496565397996   -0.37050277535286   21.01540041951132
C         2.54197514734771    1.02857679449016   19.40295523807245
H         1.51158874618979    1.32748060285863   19.53461100665756

