61
CSD_code = TIRCEF | q = 1 | S = 0 | Stoichiometry = C28H26IN3PPdS(1+) | MND = 4
I         7.62011725489887    5.04452246053750    9.93196707960815
Pd        9.59365574457887    3.68503833737132   10.88083705071225
S        11.28255913184733    2.35564572286964   11.78366344318606
P         9.49375015626838    5.03508197320049   12.66403780940934
N        12.32743512198394    0.24373683507712   10.64734322480464
H        12.47512162380524   -0.44504069660782    9.92902453006366
H        12.85006407451910    0.15907122799479   11.50272000057285
N        10.76227351968493    1.36223695831287    9.37555975573165
H        10.91196927270070    0.68529979929530    8.63012564365370
N         9.85185065917312    2.36495777927272    9.16488968826912
C        11.45873546784224    1.25797130808453   10.52076106336391
C         9.28194458221689    2.47358095850381    8.00532044255317
H         8.56155753801132    3.28172004244363    7.93453951353847
C         9.46227339662631    1.69533416678747    6.83200833780339
H        10.17666240802352    0.88340802226041    6.80760109206787
C         8.73987974930040    1.98356470974579    5.71949951550268
H         8.03788447258812    2.80661422408430    5.78443689040346
C         8.79187424642161    1.32431272129218    4.44529767160565
C         7.96481731628995    1.80340886735252    3.41703961383866
H         7.31682283272675    2.64507173172834    3.61227191702231
C         7.97323717481688    1.21513002992308    2.16965545766529
H         7.33200803666189    1.59652197498179    1.39018490836153
C         8.80493846936437    0.13400562675849    1.91757116907497
H         8.81243215296919   -0.32788044104614    0.94247631131104
C         9.62848302728930   -0.35504882109246    2.92238522918390
H        10.27452844722271   -1.19709799242873    2.72536482470123
C         9.62519682926330    0.22961303717961    4.17091841220398
H        10.27322581637950   -0.16762928650166    4.93716861007660
C        10.80925974119884    4.79033465717178   13.89360045049529
C        11.88098036026239    5.66740716843149   14.01971064110984
H        11.94446603700622    6.54255230743904   13.38822348451344
C        12.86026577673588    5.41852253352785   14.96558280170358
H        13.68919533595930    6.10215855354537   15.06838431285382
C        12.77900181577410    4.29901479128118   15.77712822222296
H        13.54590102765981    4.11031556399223   16.51254444295788
C        11.71460524860823    3.41952494150221   15.64718374550908
H        11.65150263795100    2.54776436370145   16.28064182155452
C        10.73203494141955    3.66054460569922   14.70704953573369
H         9.89611393242287    2.97986116536611   14.59777337541067
C         9.72273279646004    6.72817250765089   12.06883566045645
C         9.09226546551184    7.85965792617087   12.56382497604105
H         8.37543666284319    7.78157690610723   13.36664594055724
C         9.36722592195613    9.09154200685256   11.99125793165681
H         8.87109033001664    9.97406649464464   12.36444336359334
C        10.26227662524514    9.19243905858897   10.94023451857501
H        10.46600789652498   10.15511981614276   10.49783247731263
C        10.88486793912234    8.05836349615552   10.43676732655866
H        11.56775917938479    8.13935814888105    9.60477909553270
C        10.61115123042248    6.82636450106745   10.99481021687739
H        11.06836904964205    5.91085131565952   10.59003448287108
C         7.99069507620363    4.71686667547063   13.61488892425344
C         7.23101827222312    3.60477190041790   13.25592143620058
H         7.53317705506709    2.99365731890669   12.39532574146035
C         6.10367410658746    3.27762290125315   13.98581228806491
H         5.50786684608320    2.42208718611916   13.70687108276527
C         5.73870639283890    4.05459937517307   15.07438851164280
H         4.85209379070263    3.80658534846203   15.63706213770807
C         6.51377489259271    5.13988753833756   15.45267617184841
H         6.23519092924274    5.72891174076563   16.31303349159427
C         7.64955635540172    5.46849008824194   14.73498545772638
H         8.27573780752557    6.29255582033098   15.04657672662012

