89
CSD_code = TIRDON | q = 1 | S = 0 | Stoichiometry = C24H48AuN12P4(1+) | MND = 4
Au        3.52225413712230   10.56675484971474    2.50925200491742
P         3.52225405542770    8.58746220686325    1.11858678010337
N         2.31215165011149    7.00078963257492   -0.79299666220615
N         3.52225069680646    5.82945978799978    0.94557257562092
C         2.13480411968154    8.23936845042050   -0.08265137493135
H         2.08293885833048    9.06956941135219   -0.79859102888405
H         1.19251737632275    8.20889262262172    0.47918806859806
C         3.52224170077454    6.89667766893122    1.91064584831423
H         2.63269056506365    6.81558790075404    2.54839768414480
C         3.52227466239729    7.00061178336924   -1.59937999368214
H         3.52228112635006    7.87894635148443   -2.25008856990709
H         3.52227870903551    6.09833981304310   -2.21619439236684
C         2.33792852626476    5.85504687027027    0.10205141933804
H         2.33059800154312    4.94621133185060   -0.50501209547852
H         1.44578684281764    5.87061181206438    0.73362738123261
N         4.73238404149653    7.00078636328400   -0.79297588242222
C         4.90972261841232    8.23936582857756   -0.08262975105389
C         4.70658952871553    5.85504579093477    0.10207476218312
H         4.71393145893830    4.94620919181761   -0.50498682539858
H         5.59871912112735    5.87061173906663    0.73366783032019
H         4.41177817426756    6.81558532471318    2.54841787103522
H         4.96160026274349    9.06956546698172   -0.79857012838477
H         5.85200094587702    8.20888937261282    0.47922399530099
P         3.52225891674722   12.54603202475637    1.11856019549135
C         4.90971693971903   12.89413115011303   -0.08266727045984
N         4.73237634797855   14.13271555527069   -0.79300454577587
C         3.52225763534464   14.13290210172625   -1.59939438752350
N         2.31214372410327   14.13272537811441   -0.79299700583945
C         2.13479733812441   12.89414124427936   -0.08266094858884
C         3.52227167112886   14.23681048621513    1.91063154883714
N         3.52227084683731   15.30403590953174    0.94556657993942
C         4.70659743322633   15.27845198158594    0.10205149871915
H         4.71393330076161   16.18729173150581   -0.50500564729280
H         5.59873570465482   15.26288054945858    0.73363211911812
C         2.33793659967693   15.27845939903330    0.10206195899087
H         2.33060068476372   16.18730035199518   -0.50499318390726
H         1.44580349622606   15.26289154913355    0.73365001221765
H         4.41181949468016   14.31789280523219    2.54838896149408
H         2.63273197553815   14.31790039086592    2.54839938582139
H         2.08292034882188   12.06394715020551   -0.79860772996424
H         1.19251646850380   12.92461667713273    0.47918861610521
H         3.52225234070599   13.25457179521639   -2.25010870395926
H         3.52225940795092   15.03517813212404   -2.21620285209160
H         4.96158503300641   12.06393547027794   -0.79861276753416
H         5.85200014863630   12.92460086335754    0.47917845620944
P         1.54297318133697   10.56677242281928    3.89993549342701
C         1.19487630843253    9.17931540337178    5.10116533732288
N        -0.04371207306616    9.35665098695631    5.81149682109729
C        -0.04390575812916   10.56677023771113    6.61788633481090
N        -0.04373088953545   11.77688337367940    5.81148833701999
C         1.19485361801040   11.95423364468931    5.10115375120223
C        -0.14780318740956   10.56675975780239    3.10785997839226
N        -1.21503166807446   10.56675271032048    4.07292165354405
C        -1.18944363134677    9.38242438498994    4.91643415469267
H        -2.09828637832111    9.37508163480098    5.52348651489020
H        -1.17386329190484    8.49028746156847    4.28485179602738
C        -1.18946416327407   11.75108534276869    4.91642880998561
H        -2.09830603888369   11.75841497235835    5.52348284061324
H        -1.17390051933877   12.64321968818112    4.28484245097967
H        -0.22888060618967    9.67721482469138    2.47009779720487
H        -0.22889408992818   11.45630230465505    2.47009629647693
H         2.02504654253684   12.00611490244513    5.81710142621720
H         1.16437496390219   12.89651333630293    4.53930276362849
H         0.83442237983486   10.56677921944324    7.26860355626249
H        -0.94618383004572   10.56676546481458    7.23469180700862
H         2.02506889609354    9.12745326967137    5.81711499244092
H         1.16441422921732    8.23703037222743    4.53932197364033
P         5.50153497370184   10.56676790387232    3.89993639162280
C         5.84963798420667   11.95421887317662    5.10117231130371
N         7.08822385864669   11.77687288430420    5.81150511405086
C         7.08840881549396   10.56675094637414    6.61789026526254
N         7.08822829573747    9.35664045289705    5.81148798291270
C         5.84964406995550    9.17930058341089    5.10115000349598
C         7.19231294992759   10.56677316334725    3.10786417963659
N         8.25953956250936   10.56677052070209    4.07292786640540
C         8.23395689485195   11.75109608415159    4.91644439841052
H         9.14279859340388   11.75843158848046    5.52349841250734
H         8.21838272010757   12.64323521706699    4.28486503968972
C         8.23396348029009    9.38243508547277    4.91643084292237
H         9.14280409801073    9.37509818413611    5.52348664142988
H         8.21839605776849    8.49030300736234    4.28484135879106
H         7.27339720406400   11.45631946761585    2.47010485539196
H         7.27339948076248    9.67723200780446    2.47009799400525
H         5.01944937980475    9.12742133112013    5.81709578936099
H         5.88011798755151    8.23702289243003    4.53929528361149
H         6.21007943444516   10.56674479472447    7.26860579540749
H         7.99068572526671   10.56674811900132    7.23469741586904
H         5.01944439258779   12.00608303584567    5.81712058940225
H         5.88010701022434   12.89650587199943    4.53933277522372

