47
CSD_code = TIRGOQ | q = 0 | S = 0 | Stoichiometry = C20H20Cl2N4Ti | MND = 6
Ti        0.00001937130171    3.94699835482645    2.12713550852407
Cl       -1.65403552868794    2.29306172277530    2.12730361544709
N         1.00626287195438    2.94086339484454    0.70347916982429
C         1.06502576077917    1.59394357887056    0.69667253774880
H         0.54136572485230    1.08460757390650    1.49981327731934
C         1.73265317055138    0.86785114735293   -0.26671421594953
H         1.73868487477834   -0.20999902616358   -0.21449641591823
C         1.64927987579815    3.57896467064119   -0.29499917100932
H         1.60552898772868    4.66367193445210   -0.28054044508212
C         2.39556070232989    1.53527296418750   -1.29147152143825
H         2.92868612412846    0.99540366295822   -2.05797055369296
C         2.34507415395631    2.92541532761338   -1.28988868050102
H         2.83950871643085    3.49730481636187   -2.05994896844330
Cl        1.65433389315583    5.60069988070738    2.12727528387956
N         1.00605077847501    2.94063676766758    3.55070012003494
C         2.35297638618015    2.88198253974846    3.55756566892685
H         2.86229852716039    3.40570170107825    2.75445167750591
C         3.07908161262981    2.21444507986071    4.52099886289668
H         4.15693174387999    2.20845668210843    4.46878778017077
C         2.41167349211157    1.55151724313080    5.54575480663702
H         2.95155659000928    1.01843351914267    6.31227153282431
C         1.02152544708474    1.60189231916476    5.54411093758370
C         0.36795882818449    2.29759899796885    4.54917430447637
H        -0.71675288095347    2.34128331963939    4.53467739657459
H         0.44964484830726    1.10738910218490    6.31413499254649
N        -1.00633612309331    4.95314229329325    0.70351917926482
C        -1.06505218856407    6.30006427519557    0.69667537717344
H        -0.54137122283543    6.80940633367725    1.49979429384217
C        -1.73262103882397    7.02615885979625   -0.26674946070529
H        -1.73864888502312    8.10400826113442   -0.21453709779306
C        -2.39552932555703    6.35873912769333   -1.29150440490730
H        -2.92864597734273    6.89861818278416   -2.05800239769299
C        -2.34508824307278    4.96859664188039   -1.28989378068450
C        -1.64933687654500    4.31504347095914   -0.29497342505055
H        -1.60559394117052    3.23033715930203   -0.28051459896664
H        -2.83957095269903    4.39670502697979   -2.05992243465113
N        -1.00604953853629    4.95345078930608    3.55066387468005
C        -2.35297618259465    5.01206294963443    3.55754166746716
H        -2.86229188657262    4.48835989353231    2.75441451128611
C        -3.07909462405435    5.67953122238157    4.52101777273638
H        -4.15694265542750    5.68553672390850    4.46878626294663
C        -2.41169641782882    6.34242874064886    5.54580015829923
H        -2.95158718660840    6.87549877272377    6.31232162311102
C        -1.02154983337532    6.29208639545200    5.54415173517751
C        -0.36797157064210    5.59644598539537    4.54917511391847
H         0.71673797113135    5.55276945027272    4.53469072108281
H        -0.44967737288921    6.78661216901344    6.31416780857997

