147
CSD_code = TIRHIM | q = 0 | S = 0 | Stoichiometry = C60H81ClMoN4 | MND = 5
Mo        0.65568732727634    4.61126044519124   18.17801981736888
Cl        2.95517384666098    4.67411456205715   18.22853614813326
N        -1.58192870193058    4.55954294390945   18.12522187213038
C        -1.98452599806984    4.48535860596143   16.71529883740386
H        -1.83852377397091    3.45162624456670   16.37070732463206
H        -3.04432296756277    4.74698838449599   16.58112961236865
N         0.13638737627748    5.67264751000191   16.56158641966423
C        -1.08938342154577    5.43005613208494   15.98125081008157
C        -1.23137693420419    6.18336610535383   14.84840079598594
H        -2.07482398937534    6.19946104694374   14.18547814371777
C        -0.04593398320183    6.94616877296295   14.72711647799169
H         0.17037751116537    7.67033971322645   13.96566297707497
C         0.76259313887055    6.61761854133522   15.79109255190364
C         2.00395175692514    7.30278871234136   16.21038307693007
C         1.88583294846751    8.47911739231840   16.96060953740714
C         3.26180212914139    6.87186384826256   15.77517351348271
C         3.03013728465327    9.20547601246818   17.25600911401764
H         2.94694199931568   10.11548301096734   17.83401030734662
C         4.37639943479129    7.64321546922671   16.06493538467401
H         5.34040112482857    7.33010518789317   15.70129508752756
C         4.28002854261807    8.81287604829870   16.80259692110259
C         3.38165707432964    5.61746455420356   14.94065729056738
H         2.57603495002371    4.93414869177900   15.24123288142195
C         3.19992175680923    5.96699333120518   13.46078610367800
H         2.21489073540308    6.39082519612776   13.28533195628921
H         3.30824936630603    5.07478982488408   12.84789025500054
H         3.94985571275644    6.69288261991755   13.15210176649601
C         4.70178825357448    4.87869158583415   15.14528324499584
H         4.88865835281287    4.72499006833138   16.20513096978871
H         5.53585650202727    5.42393959204870   14.70887933214619
H         4.64471233466215    3.90569012166569   14.66501842997066
C         5.47690807420842    9.70096928794156   17.05116278990019
H         5.26180656307674   10.32295720243681   17.92841546821045
C         6.76546478978562    8.92559703645250   17.32296643686360
H         6.60559720635862    8.17144340625686   18.08927031994391
H         7.54225934679407    9.60749207628103   17.66324381682874
H         7.12399470511298    8.43474166458140   16.42179124324290
C         5.65980556899581   10.62898381733668   15.84541496327727
H         4.76209335130554   11.22075075135103   15.68004875520520
H         5.85308208468977   10.04461840198790   14.94838743444981
H         6.49748957111172   11.30411222561790   16.00772978474008
C         0.53408272663300    9.00276029037697   17.39612687783375
H        -0.23903036108357    8.31891376332782   17.02983410767252
C         0.26812414419822   10.37461273507345   16.77122987307313
H         0.36046972727380   10.31807722094505   15.68894501899321
H         0.97403816704831   11.11532795749628   17.13822022960359
H        -0.73771936116994   10.71010069379120   17.01581896264273
C         0.41985680100969    9.06627841025386   18.91917619116200
H         0.54020131861414    8.07218395235732   19.34715246712487
H        -0.55800679901216    9.44564054132940   19.20962378028013
H         1.17976179091420    9.71745891675743   19.34323108268807
C        -2.01338281281107    3.37090460070797   18.87158845629948
H        -1.93863983621994    3.59383170318640   19.94549402899863
H        -3.05723576965315    3.10722038991752   18.64687137987127
N         0.17009685489864    2.67411097237375   18.04675126528397
C        -1.07498843575024    2.27549400636261   18.48171888263297
C        -1.18847822819586    0.91483528332103   18.40097117506091
H        -2.03792294290268    0.32042779628893   18.67711038863247
C         0.03633862101611    0.44445778366527   17.87115442019966
H         0.28309515625338   -0.57515415158131   17.64632949739439
C         0.83846408545017    1.54221425564951   17.65838831428658
C         2.11670181947824    1.57804422645105   16.91593151702661
C         3.34795748918163    1.44042333195578   17.56551444785602
C         4.50088243909288    1.31397015932269   16.80625506613426
H         5.44492200622182    1.17399501353491   17.30494640959918
C         4.46768057379474    1.35290627406116   15.42109575154858
C         3.24277269737602    1.52759647952301   14.79552083662648
H         3.20902891483463    1.56260869148306   13.71535352721830
C         2.06258632159068    1.62675481171247   15.51744544055572
C         3.39956555081674    1.36065220502659   19.07385696770173
H         2.56543723419517    1.95438299442171   19.47186313919919
C         3.22008744241478   -0.09435378342003   19.51648937068907
H         2.25702699117181   -0.47811858099944   19.19094250205130
H         3.27429426147540   -0.16657801558895   20.60052101084843
H         4.00392936615517   -0.71593481787759   19.08772051370418
C         4.68488720581618    1.93241701048542   19.66657585390035
H         4.87437811295238    2.92699365888772   19.27073064197351
H         5.53992524060489    1.29351589913408   19.45652444368897
H         4.57645304797021    2.00999769968968   20.74490861017732
C         5.70647534387456    1.13258124575852   14.58443757818777
H         5.53536129810856    1.58387356775248   13.59964616171509
C         6.96596778026893    1.75896734097424   15.18165318777515
H         7.77582618590113    1.72421079397710   14.45564475046165
H         7.28906236325385    1.21823801584738   16.06760394654250
H         6.78751961167324    2.79632343528619   15.45298276532718
C         5.90520540961514   -0.37408404135361   14.38689113595914
H         6.77389285573428   -0.56485265378684   13.76012454242619
H         5.03049610997981   -0.81545403675941   13.91413802103333
H         6.05595816893157   -0.86149798688612   15.34774222658017
C         0.74242792909900    1.71986851412026   14.78282688627054
H        -0.06650710552528    1.74275282313434   15.52072389221631
C         0.65187837409630    2.99797526044855   13.94902314121299
H         0.73202985471059    3.87334955126131   14.59187195165033
H        -0.30345287734629    3.04362037313730   13.42961217133619
H         1.44657838270629    3.04123027599195   13.20881739681007
C         0.53166998129833    0.48144910817635   13.90810233712919
H         0.60644682329003   -0.42064929544064   14.51115112627065
H         1.27611249156684    0.42927299786932   13.11771625944990
H        -0.45412536896256    0.50968373392186   13.44819563365824
C        -2.06275809252591    5.79446543440259   18.75761297984769
H        -3.12495277321063    5.72266437909981   19.03354120578442
H        -1.94899570231227    6.61628198986565   18.03634790852231
N         0.06024565161018    5.44505557459336   19.89723667325541
C        -1.19725135552305    6.00499565658850   19.95711619304181
C        -1.39053785343753    6.59898001888021   21.17388594826908
H        -2.26755642546431    7.12043552005643   21.50561784076039
C        -0.20479868313972    6.38205094320435   21.91497280733409
H        -0.02101842045456    6.68875832842297   22.92648535707601
C         0.65491658437032    5.66867298847558   21.11159172366081
C         1.92136439542886    5.02368792307569   21.51913500041757
C         3.15042303151474    5.68088081422935   21.39986879065480
C         4.28116853239749    5.10280097768622   21.95558783562949
H         5.22118684818157    5.62455774189343   21.89428011398223
C         4.22944204321974    3.87587134428491   22.59857468509266
C         3.00957982357789    3.22087257909720   22.67286722925877
H         2.96186992500514    2.26213513930553   23.17053944197731
C         1.84969600409347    3.77822349616140   22.15520992968499
C         3.21899490638061    7.03611369544674   20.73454964153772
H         2.42304588070339    7.08141440142665   19.97936032703088
C         4.54099804900302    7.28977972204304   20.01438093938397
H         4.77749868130959    6.45863377050115   19.35481387401068
H         5.35796180673883    7.43297157714401   20.71825320900911
H         4.45201160840386    8.18887095006681   19.41057063862362
C         2.96876694347927    8.13146731458390   21.77506156255459
H         1.98016333402452    8.02464945195998   22.21329316886918
H         3.03898967185876    9.11319645314495   21.31172319005159
H         3.70921394342457    8.06966778572322   22.57035986124608
C         5.43774165543035    3.27960482848978   23.28256170421174
H         5.28178752949974    2.19706622600777   23.36379683535572
C         6.74542658463486    3.51591325974711   22.52788502218511
H         7.54033835433334    2.91878981401857   22.97028640372444
H         7.04400014379653    4.55981865213253   22.58049679529999
H         6.64204477871733    3.23611303245620   21.48259144305865
C         5.53255771360195    3.85240385516033   24.70084935086461
H         6.37505625996105    3.41526662208616   25.23278671824630
H         4.62201947599618    3.64354024438090   25.25826274140871
H         5.66827436674880    4.93108126720290   24.66125406010960
C         0.52620544296824    3.07052631100497   22.35213315645985
H        -0.26305168222128    3.67038297604670   21.88641522877406
C         0.20420704327385    2.96431588698086   23.84506625753338
H         0.21020236320838    3.95181430688238   24.30092680069824
H         0.93513304641075    2.34445593621255   24.35820777315046
H        -0.78021911893272    2.52304706271292   23.98749552646114
C         0.51385670780297    1.69130357048479   21.69323454761982
H         0.67827688536244    1.78341107259598   20.62111792940128
H        -0.44903463365983    1.20846536353185   21.84884033650269
H         1.28822259919953    1.05033819156626   22.10635775614971

