81
CSD_code = TIRJIQ | q = 1 | S = 0 | Stoichiometry = C39H36ClP4Pt(1+) | MND = 4
Pt       12.99063482957324    2.02036872959353   13.71194393866664
Cl       12.25793553209643    3.96646189867652   14.65178099093873
P        11.90637298175176    2.48133591419541   11.76813112473943
P        12.71239215553486   -0.17432082114188   10.48218364043601
P        13.86987128508463    0.01210072932116   13.07067631857480
P        14.16418767462861    1.11747174079108   15.53299809618112
C        11.29363049643855    0.94067416273394   10.97196836422712
C        12.87067384525067   -1.15532352533656   12.07882067387778
C        14.10574542590845   -0.60381653798432   14.80518018481598
C        10.41101004989478    3.48786467699966   11.88066259990023
C         9.52415354116777    3.19207529601382   12.91271174572678
C         8.35943945794738    3.92149914436215   13.04757099168378
C         8.08165872749742    4.94718720329421   12.15614000985709
C         8.96580860077257    5.24300255688055   11.13145579327209
C        10.13509373953085    4.51644990186291   10.98829437253922
C        13.00184371984175    3.28431375818056   10.58054113354011
C        13.13117500151886    2.91713193709321    9.24642323841710
C        14.02691672407789    3.59488163835532    8.43714162684722
C        14.78919202295475    4.63183249446357    8.95090618324757
C        14.66243646473570    4.99953487760632   10.28238843687364
C        13.77382189122510    4.32573761432361   11.09811282731937
C        11.78916862267621   -1.38453837017782    9.46761712826850
C        10.62591216242150   -2.01640064792905    9.89711755110264
C         9.98301658412797   -2.91577730263218    9.06773751874999
C        10.49151542647075   -3.19149736747854    7.80796212879646
C        11.64833834936967   -2.56602944045497    7.37521634198143
C        12.29515493457592   -1.66545431893795    8.20281019046866
C        15.50487825619442   -0.01651129612197   12.30577097971248
C        15.89541669709349    1.08534389499749   11.55238370613898
C        17.14511484401488    1.10818045780529   10.96303458712670
C        18.00616406628646    0.03537166225134   11.12960772928595
C        17.61462416511675   -1.06660173280858   11.87379949157186
C        16.36355783003181   -1.09864742027928   12.46187753503880
C        15.89620438906097    1.56335520406673   15.24524510491328
C        16.15710000817622    2.60199646129614   14.35733728181114
C        17.46345339970406    2.93566174046572   14.05189226915251
C        18.50645608025661    2.23684738682199   14.63765206641514
C        18.24754330072164    1.21471484295313   15.53850606204022
C        16.94361760397210    0.87664644105303   15.84908602262499
C        13.96787984593453    0.99861015604288   17.32495866167515
C        14.04315227670344   -0.20196416236112   18.02223739101250
C        13.90533536425969   -0.19522509348857   19.39891102352722
C        13.68817646290262    0.99617266909562   20.07299336952065
C        13.60371253108655    2.19135098710765   19.37485095176158
C        13.73944606910178    2.19599929110756   17.99977880913616
H        10.74960052859090    1.21651043931292   10.06137331929950
H        10.59346526813259    0.45025071257263   11.65653870194745
H        11.91560636756701   -1.38467808990509   12.55883675959643
H        13.43085782229104   -2.07439613753506   11.88052588090386
H        14.97670790968426   -1.23557790115819   14.99053132462696
H        13.19197713873585   -1.10906643295554   15.13688502498724
H         9.77257517322451    2.40573457738967   13.61748851477181
H         7.67283789776636    3.70129303843696   13.85074103177972
H         7.17614322681787    5.52371501548112   12.26696540083412
H         8.74840593826713    6.04711268360774   10.44502964221714
H        10.83382994791703    4.75006928445032   10.19696666155917
H        12.54102966652926    2.10900680514621    8.83589293988416
H        14.12825430511169    3.31310740489903    7.40017241513073
H        15.48352070644620    5.15535181231040    8.31170033425086
H        15.25548062962812    5.80871102907296   10.68052433387908
H        13.65671864874125    4.59687715340475   12.14249973935963
H        10.21645511325191   -1.80984850100659   10.87576915207903
H         9.08102719678725   -3.40430691223331    9.40402142798280
H         9.98402434091294   -3.89426863164481    7.16537916136946
H        12.04606887030641   -2.77938662926452    6.39491910907741
H        13.20036067389531   -1.17200926185543    7.87648312995634
H        15.21199191789158    1.91777378335642   11.43880169205470
H        17.44772057246331    1.96209174229626   10.37672478170521
H        18.98505286567403    0.05415346350759   10.67597597812890
H        18.28562436668894   -1.90338882452847   11.99423817628529
H        16.05482635783753   -1.96380515136998   13.03301524415027
H        15.32178494145107    3.15107879772575   13.92061056569046
H        17.66939348090743    3.73979798072065   13.36229298615082
H        19.52701129196094    2.49500452870431   14.40040619482004
H        19.06519166495652    0.68372381687634   16.00163546155422
H        16.73462951434549    0.08935948995832   16.56072153837416
H        14.20623475831284   -1.13311481869426   17.49767117567165
H        13.96466891445733   -1.12335584856791   19.94719667877794
H        13.57818198327696    0.99149623975032   21.14645646545930
H        13.42687141269151    3.11590225439019   19.90248318824888
H        13.66233514912340    3.11571365432473   17.43450967395243

