81
CSD_code = TIRJEM | q = 1 | S = 0 | Stoichiometry = C39H36ClP4Pt(1+) | MND = 4
Pt        4.41665174027455    3.83754343332095    8.27083626373510
Cl        3.22572251822167    4.99901422477368    9.82882244538962
P         4.65236851197011    1.78047190040434    9.39764825679789
P         5.58449147727674    2.41429880024637    6.91760748486991
P         5.80449332345902    4.06433530752323    4.62127823966675
P         4.35647052176018    5.59619229251270    6.83326038181385
C         4.99040184861993    0.88748450748291    7.78639998442481
C         5.23024313328815    2.34577751941757    5.12413712616086
C         4.26881940871263    5.02371617731598    5.08755863508263
C         3.68714397832597    0.65961100196252   10.43814740842803
C         2.53211207728316    0.07607232280608    9.92226660314597
C         1.75601212640818   -0.73793302401082   10.72483462229400
C         2.11674416037945   -0.95651039689983   12.04570028034467
C         3.24990577743303   -0.35351223175886   12.56770539329841
C         4.03349369191553    0.46216541174759   11.77197053275014
C         6.32109478242563    1.85834463567212   10.09391384518958
C         6.86183726815489    3.12090088601667   10.31852463084833
C         8.16236401524661    3.24518063359758   10.77184074268541
C         8.92191798108000    2.10976562522608   11.00154762951657
C         8.38072233654608    0.85027082401365   10.79128802523773
C         7.08052940534951    0.71897186125074   10.34070692595010
C         7.38637913369528    2.37708114660008    7.02303699183711
C         8.04881112962151    3.54721221700296    7.37738470245661
C         9.42684119022838    3.55256703715619    7.48216891247220
C        10.14190331888911    2.39072865408997    7.23991515298335
C         9.48250709245668    1.22565984394282    6.88010520063551
C         8.10450027960494    1.21445176044563    6.76737363782081
C         5.54711779787297    3.95484397874525    2.81359355899074
C         6.62588124520120    4.28875188301109    2.00138304337608
C         6.50860709321805    4.22976525773137    0.62405848549444
C         5.31118058781892    3.83697691467655    0.05073765781506
C         4.23254417634080    3.50340204652108    0.85536015305359
C         4.34578868368980    3.56079326166383    2.23162236982352
C         5.85189419427192    6.59388496283945    6.98285890249559
C         6.61626193887091    7.04238431241135    5.91234501713475
C         7.76478644581387    7.77624110638158    6.15561929889679
C         8.15071410608897    8.06284492384122    7.45533876815794
C         7.38884542422209    7.61686480647282    8.52528858425283
C         6.24325710535068    6.88054809771560    8.29166883905919
C         2.94487576650128    6.71583676001536    6.95579131068444
C         1.68768072940162    6.13758838057600    7.11087235305691
C         0.56876110484478    6.94138776879320    7.20354744944479
C         0.70440958201430    8.32064477061451    7.14467125966407
C         1.95553086495641    8.89532273826105    6.99268496032155
C         3.08258352250638    8.09712304460670    6.89854093612507
H         5.68021784640099    0.04364843237800    7.85118324195514
H         4.04759952965744    0.56024342897523    7.33652032804150
H         4.17422933314362    2.15071175449142    4.91965567861488
H         5.86060373673468    1.59861632414556    4.63215952392321
H         4.20794771517927    5.90462140579166    4.43839051338969
H         3.35288443027218    4.43715739994735    4.96047957036795
H         2.24047940052302    0.26584911076492    8.89781083597839
H         0.86468562068980   -1.19661552328565   10.32432828674873
H         1.50674136917406   -1.58915941777350   12.67160247290025
H         3.52129928131648   -0.51373772241479   13.60000311047806
H         4.91182306776439    0.94416743590917   12.17791166516856
H         6.24456901815073    4.00212288658696   10.14351696674786
H         8.58304796854145    4.22344819298993   10.94663598573746
H         9.93782556075743    2.20364608741397   11.35300278820348
H         8.97437346273615   -0.03079384027969   10.98187265428519
H         6.65061136472928   -0.26159892500905   10.18642102147864
H         7.47228558080239    4.44319499574433    7.57180900038838
H         9.94188963446353    4.46071269300453    7.75504871915150
H        11.21733076894994    2.39118737794593    7.32830389894006
H        10.04415239693524    0.32468666870213    6.68563984725142
H         7.59075940574010    0.30788245099996    6.47701226321248
H         7.55631725168662    4.59310739281778    2.46097363969795
H         7.34949620721567    4.48989159975439   -0.00047458009602
H         5.21558531013624    3.79011103621637   -1.02304076489850
H         3.29921363992361    3.19764731103419    0.40685352528972
H         3.49604720081178    3.29940890345452    2.84635417263406
H         6.32362466924832    6.82383738103318    4.89425880657829
H         8.35979418672679    8.12709625091986    5.32628843648541
H         9.04730928752915    8.63618270605967    7.63482006903382
H         7.68942977830028    7.84367358839053    9.53683774864402
H         5.62964865097786    6.52275844971580    9.11222602759296
H         1.60540222736561    5.05868003465301    7.18461267309100
H        -0.40693831263610    6.49843613330849    7.33281258655035
H        -0.16881931902621    8.94944706060827    7.22695972051035
H         2.05610578781239    9.96929490536721    6.95462555664581
H         4.06272434366550    8.54056864286625    6.79102100551095

