81
CSD_code = TIRKAG | q = 0 | S = 0 | Stoichiometry = C36H42NiP2 | MND = 6
Ni        1.00435047361618    2.29596480652573    4.90604625713835
P         0.78334390540376    1.58509355403776    2.81819892079264
P         2.42807596282893    0.99364657859863    6.00149747910310
C        -1.12528593310524    2.66753028983847    5.43191152504633
C        -0.50209547025119    2.56526085201631    6.63342940009665
C        -0.15794124609322    3.74730091396744    7.50312411389773
C         1.20649524326590    4.40015064290018    7.18739526188135
C         1.66582532290616    4.28406636916593    5.75488319119882
C         0.90967195280393    4.58800676123484    4.67006319912728
C        -0.51136930993666    5.08424767199003    4.77114188230829
C        -1.56948826212262    3.96020224430293    4.78713368767584
C         3.19034327612416    1.57151138708957    7.55587230699965
C         4.38231410057835    2.29049449635870    7.55184898369058
C         4.88686976210626    2.82500483029512    8.72361941042550
C         4.20079589619123    2.66357617272097    9.91566533946226
C         2.99914689626229    1.97346228795467    9.92652812509209
C         2.49479640630243    1.43961648577824    8.75598904052111
C         1.70818406393184   -0.59763174977779    6.54828609986674
C         2.26822814339621   -1.42443004385853    7.51757663584415
C         1.67058943419924   -2.63258392379962    7.82755319875455
C         0.51097523840955   -3.02925955155365    7.18030330067560
C        -0.06431009827852   -2.20212234595972    6.23108326589895
C         0.53102544973317   -0.99260574297681    5.92537493140549
C         3.91362964172302    0.37405933156211    5.06766973474079
C         4.83826456143148   -0.60431961620129    5.77506806631815
C         0.41445210786532   -0.19615907356659    2.60746893577953
C        -0.90307255598258   -0.63674041580305    2.71100075272423
C        -1.20468157983459   -1.98447242889203    2.65973241107351
C        -0.19186053913922   -2.91858404558610    2.51911303404921
C         1.12249542241349   -2.49327533294577    2.42921890207263
C         1.42299411109490   -1.14466278279200    2.47571308280272
C         2.31900323158676    1.74353011796397    1.83822995284259
C         3.34034129885920    2.50795679995391    2.38737474567331
C         4.52074612380660    2.71238148350187    1.69637980019342
C         4.68768952590121    2.14909054773209    0.44252617047672
C         3.67400616303688    1.38348616980692   -0.11279203556735
C         2.49340790042009    1.18160964382135    0.57798894058559
C        -0.41150107118362    2.22755633556747    1.53530062207262
C        -0.08854782758255    3.64957982707017    1.10219368924936
H        -1.59182992882300    1.77336687845599    5.01733932703131
H        -0.45351858678335    1.59055865238013    7.11215106935451
H        -0.14319251575412    3.42389169915747    8.54662138335494
H        -0.95519924472413    4.48698610261654    7.40354129692995
H         1.96569624183958    3.94584299321477    7.82522397428578
H         1.16150624054549    5.46496481271386    7.44830855875428
H         2.74625912959067    4.20387324708189    5.63661064452573
H         1.40083003157253    4.72379623678285    3.70966408395444
H        -0.59888797019235    5.68821346864248    5.67575384718005
H        -0.72211319642904    5.74230488029511    3.92349985648621
H        -2.46600303682891    4.31887705856292    5.30843564501892
H        -1.86186593973440    3.74378136958439    3.75789272148553
H         4.91925276916940    2.43882777572402    6.62559899174213
H         5.81787526490359    3.37404874882313    8.70627688635951
H         4.59605728089582    3.08150396433588   10.82997793145456
H         2.45173744337931    1.85676002649715   10.85126517571537
H         1.54930590794624    0.91492092008297    8.76598297106840
H         3.16060662799855   -1.11886442138164    8.04440727426502
H         2.11190504622365   -3.27019300944735    8.58081453684934
H         0.05260879583157   -3.97635289662744    7.42616040662360
H        -0.97568790768816   -2.49631062276326    5.73089232128873
H         0.08188938932169   -0.32730952392660    5.19890800589814
H         4.47213814390213    1.25858318099359    4.74910218854057
H         3.50962578272349   -0.08266716347291    4.16047339421717
H         5.19648532621369   -0.19621696328912    6.71818767540893
H         5.70165529260265   -0.81308583233177    5.14418541573428
H         4.32851256410085   -1.54413296007017    5.97269597859510
H        -1.69943336137124    0.08281598077447    2.84229691812544
H        -2.23322448667569   -2.30870873512079    2.73473718037507
H        -0.42544375420375   -3.97262521953249    2.48495676083719
H         1.91818631751516   -3.21697607112348    2.32376844633734
H         2.45248469207844   -0.82412903358429    2.39879631042832
H         3.18594890451433    2.93497402927897    3.37282217276292
H         5.30996136559001    3.30988295217161    2.13050553204143
H         5.60694531876212    2.30420985570871   -0.10364121058698
H         3.80671966281830    0.94325666336660   -1.09102969550345
H         1.71040662675636    0.57761135494086    0.14085256992249
H        -1.41400773277293    2.19661351475583    1.96860995106909
H        -0.39543028827255    1.55362171603528    0.67464722064719
H        -0.81883691257858    4.00048915307466    0.37404526992695
H         0.90007804434946    3.69812161909466    0.64878788576792
H        -0.10601107098344    4.31993404949268    1.95716076373263

