97
CSD_code = TIRKIO | q = 0 | S = 0 | Stoichiometry = C32H54N6Si4Zr | MND = 7
C         9.52785713380913   -0.31429271677060    4.07990190672859
H        10.58114217074142   -0.04915235753855    4.07451048104146
H         8.95718180269798    0.58885786129662    3.88770514831551
H         9.35496086316180   -0.98645964534864    3.24569920743003
C         7.12559055838432   -1.05439555647801    5.94449856897600
H         6.77320879743227   -0.02954362291539    6.01284375089145
H         6.83008305566182   -1.57045749582616    6.85428059672653
H         6.61375461393969   -1.52300151406610    5.11079077645559
C         9.59099718304724   -2.97662385467780    5.66689254028380
H        10.61887042206218   -3.06454814180158    5.32140014013896
H         8.97099935889309   -3.55994316379570    4.99372050587306
H         9.52732995465017   -3.42393349080845    6.66253718075077
C        10.64613981572698   -4.43868294746306   11.08546546651020
H        11.43782423274150   -3.99440217930273   11.68507697710091
H        10.21247922511380   -5.24605370860264   11.66673654585052
H         9.87437166837329   -3.68086454543383   10.92600457141840
C        10.00085583162232   -6.17190198088626    8.54740080652235
H        10.33262607304204   -6.51546516994510    7.57215600424096
H         9.07826254968922   -5.61429278486588    8.40887941238945
H         9.77740895520964   -7.04844038915269    9.14606989020082
C        12.89285503890507   -6.09174860694462    9.73456926642583
H        13.75104097246554   -5.45036521422102    9.91300177565173
H        13.13592914640037   -6.74900524889702    8.90555981854246
H        12.76317278490149   -6.71706414503707   10.61195614205854
C         9.12023503140270    1.23697264023335   12.70457280375690
H         9.28063066659029    0.90086689306504   13.72419377423778
H         8.26227886623494    1.90133712092343   12.71724731008290
H         9.98485578958712    1.82375217364074   12.40820223469799
C         7.95542787075112    0.46550972767935    9.93830313604793
H         8.45461015866076    1.35823797483646    9.56752011880007
H         6.92302366689079    0.73135934244586   10.14142065781434
H         7.96394073362715   -0.28430957935273    9.14258042380417
C         7.70918459352160   -1.53244246569209   12.34886457164608
H         8.18641178735065   -1.96802617887646   13.22164033616268
H         7.48851346235329   -2.33720743254536   11.65247473377454
H         6.76842387348734   -1.09886144101702   12.67072050998649
C         7.55003776230764   -3.30347591293163    8.99123495043175
C         8.62474936293938   -2.72649969736311    8.93365433119912
C         4.57339874042090   -2.98235274825862    9.70784677321977
H         3.60152271847732   -3.46541327099739    9.76348280594323
H         4.47738591782862   -2.12475698127823    9.04842394667106
H         4.81153958951555   -2.60535709556911   10.69799705647934
C         5.43891398245527   -4.82951411277530    7.35135947271284
H         4.49077144760528   -5.36015643396864    7.37186496786792
H         6.18973355753261   -5.51197828346166    6.96399963301494
H         5.34482504869673   -4.01340424481133    6.64116166248327
C         6.05982070696361   -5.65923557068490   10.29146470466802
H         5.11783215552504   -6.19379548270075   10.38010678114067
H         6.34427315120400   -5.32651605177357   11.28541934588988
H         6.81180620038965   -6.36873850745724    9.95926001846217
C        12.42172158181305   -3.20417295614864    7.62110981030294
C        13.39192965468374   -4.00898556382887    6.97444084055000
H        13.41895439624497   -5.06201748416928    7.20362023909237
C        14.25900192637689   -3.45331490181784    6.06611503123645
C        14.15793853842570   -2.07678920784119    5.80034526412633
H        14.82102475678293   -1.60780326759382    5.09079030758961
C        13.19767810667708   -1.34518917434941    6.46120503884755
H        13.08930044028518   -0.27903368331928    6.28084979010912
C        10.35307031494568    0.61422741729957    7.46289691625481
C        10.22254790973920    1.83020219976627    6.74762853139730
H         9.62123838165499    1.83593347682265    5.85286722293401
C        10.83545885066638    2.97124738710810    7.20363314551780
C        11.58994356577636    2.89796044609053    8.38731808295745
H        12.08241014039034    3.77526113078984    8.77579155289868
C        11.68402333279301    1.68836426274700    9.03697209529730
H        12.25792174436992    1.59369849376311    9.95491204148929
C        11.47815775962034   -1.09825800709185   11.29306377593397
C        11.95212968928152   -0.80323635093740   12.59520277145571
H        11.24637086681574   -0.44858654382269   13.32887352510908
C        13.27639363894739   -0.98700223292735   12.90854272705858
C        14.13942867321006   -1.46947219285615   11.90953539724209
H        15.18503285149438   -1.62754616447425   12.12122097546448
C        13.62252652765037   -1.73579284885936   10.66216020626198
H        14.25935092928493   -2.11018930874220    9.86515081153689
C        13.80803831027419   -0.69618393673472   14.27786555106549
H        14.63123975522277    0.01450090256721   14.22065872478834
H        14.19023874682119   -1.60950184709154   14.73223591758746
H        13.03170435171500   -0.28574827737367   14.91795145466397
C        10.71084350986092    4.27478692871202    6.47727124799409
H        11.69616095282965    4.64856364829627    6.20192834620445
H        10.24236377260359    5.01885413275637    7.12020902347821
H        10.11277624617838    4.16316125832054    5.57684309680117
C        15.29014376780926   -4.27666045359755    5.35811486858958
H        15.11516905764772   -4.25248273758121    4.28320686944147
H        15.26159424071590   -5.30966298562531    5.69434938245716
H        16.28533057451220   -3.87344651576952    5.54064302292243
N        11.51076405216411   -3.61025725028330    8.49863914546456
N        12.35328579614264   -1.86705535620846    7.34693524598001
N         9.79777665121115   -0.55214694520125    7.15306091073028
N        11.10030548539400    0.57309124214570    8.60638836034068
N        10.22650509024715   -0.99096623001507   10.86097374310856
N        12.34354507084110   -1.55937703113738   10.34119833473853
Si       11.30815521904318   -5.05557446395152    9.39677298221442
Si        9.02997382793480   -1.14631859104828    5.74094284622494
Si        8.82826007267546   -0.23009851344897   11.49553374590998
Si        5.92748529455511   -4.18121310901827    9.08377889709703
Zr       10.57419652467754   -1.68208255623240    8.83407764002962

