37
CSD_code = TIRLUC | q = 0 | S = 0 | Stoichiometry = C15H9N6O6Rh | MND = 6
Rh        3.30053721468668    2.04828026970004    8.65656641315617
C         4.36469257907252    1.34911546402925    6.16369768471523
C         4.58467501058015    1.32368668868351    4.78980171285287
H         5.32444381919416    0.65395355050758    4.37456113775219
C         3.01407818826460    2.91730899677151    4.49084915342220
H         2.47241358629800    3.55127125973195    3.80377749605728
C         2.76782245875206    2.96877918411602    5.85747687890095
H         2.03950601359232    3.64232244283900    6.29057782420138
C         5.12869598444966    0.47688309140976    7.17067464985097
C         0.61690155847480    1.35349714685832    8.79577552234927
C        -0.51972600356839    0.57653550213491    9.00074165843847
H        -1.47287387270630    1.05033524432789    9.18851111790634
C         0.70426913801915   -1.30532837024640    8.76898330098870
H         0.73171002577064   -2.38548995696063    8.77039538118248
C         1.85915435362104   -0.55972737010657    8.55473846558397
H         2.82394671507092   -1.02295391241093    8.39205880064157
C         0.62417069665378    2.88422801051303    8.83159806953535
C         4.89271840728008    3.47407688920792   10.42778965513170
C         5.84799275009982    4.34546169528180   10.94750181074089
H         5.98576246175840    4.41245445917800   12.01761599893625
C         6.40892783577866    4.99924814836384    8.86665109566058
H         7.02820050161239    5.62147118595463    8.23640480613615
C         5.46560900756558    4.13939976306458    8.31736076073266
H         5.32838645129895    4.07249015122236    7.24583336206468
C         4.00426629527705    2.58742984867871   11.31240865925648
N         3.44904297391276    2.17730941242198    6.68902537419205
N         3.91220885974647    2.10233131093052    3.96250698345883
N         1.79959513731778    0.76990031258321    8.55958073946735
N        -0.47135863494740   -0.74208977620874    8.98407337570709
N         4.70898515769863    3.37573597080644    9.10533653656831
N         6.59936305993211    5.10042016022535   10.17044045564977
O         4.77487975541449    0.67732544203232    8.38374489027360
O         5.96519166538358   -0.30211135808650    6.77562248859920
O         1.80435703085053    3.38648380875337    8.78485458366813
O        -0.41440164596418    3.50177951824613    8.85860259616715
O         3.20225896322056    1.85176997849166   10.64124356875210
O         4.10979650053737    2.63761583695103   12.51451699130205

