40
CSD_code = TIRMIT | q = 0 | S = 0 | Stoichiometry = C17H15AgN4O3 | MND = 5
Ag        1.92185689624228    0.33010598967834   12.47976764718764
N         3.64065308595934    2.02520182802248   12.16481311163605
C         3.36431461983177    3.29341133290570   11.88005726537098
C         2.04459974663738    3.82398916573897   12.32319791958268
H         1.64704899442943    3.21258835758474   13.13266736078755
H         1.34170230109654    3.78354237947009   11.49037663445065
H         2.12518900825167    4.85884674278582   12.64669303375953
C         4.27074433802851    4.09884317592995   11.19036462057278
H         4.02315125674092    5.12787135124341   10.98159508869602
C         5.47698695847957    3.56207762836608   10.77987016910351
H         6.18945217602416    4.16225580220727   10.23350397592054
C         5.75875130691613    2.23985678019110   11.08134367715196
H         6.68121868191358    1.78441298082179   10.75820430443930
C         4.81180361966005    1.50213260559308   11.78513176802876
C         5.04335320536574    0.10027812552871   12.16313649291027
N         3.96244715855781   -0.67828743343501   12.21100221058088
C         4.08122211617501   -1.95385055279173   12.57910698856849
C         5.31495531222568   -2.51171919271566   12.90621748844199
H         5.38504209257797   -3.54079748241922   13.22046655630967
C         6.44347506660048   -1.71084554193655   12.85111485116176
H         7.41210654384225   -2.11237906281393   13.10882278419767
C         6.31124984365780   -0.38413830734233   12.47645012786877
H         7.16905328727219    0.26870795972303   12.45157137256735
C         2.83134751075956   -2.72537707219043   12.64396752380186
N         1.73849775074035   -2.04015709385559   12.99845273320589
C         0.57334424436629   -2.67042940850780   13.10341127204626
C        -0.61204597917942   -1.85959312683455   13.49975521175148
H        -1.17916501025122   -1.58987890437488   12.60822438461781
H        -0.29118741249243   -0.94064838463775   13.98935679499049
H        -1.26877682999090   -2.42041994232706   14.16035278290968
C         0.45991981736494   -4.03767950456998   12.85093373401553
H        -0.49722101340536   -4.52457049680078   12.95394098147222
C         1.58083103314012   -4.75046023500219   12.46732801862735
H         1.51524170356145   -5.80706431165153   12.25375832859185
C         2.79231859381245   -4.08733304051000   12.36174661722687
H         3.68161074692063   -4.60878014759381   12.04539761851790
N        -0.60071031926599    1.46467847275929   12.26441761743959
O        -1.69610298206046    1.95291143881916   12.14697151122786
O        -0.02843052447579    1.42656495390507   13.36915852044833
O        -0.00484894603371    0.98163217103608   11.28265089980476

