42
CSD_code = TIRMOZ | q = 1 | S = 0 | Stoichiometry = C19H18AgN4(1+) | MND = 4
Ag        6.66197521624858    4.25303547756494    4.39483827082990
N         5.90012005190216    2.01220373643220    4.81150905661970
C         5.64805200853064    1.15544202254492    3.82926332575576
C         6.36247723899812    1.36682159578501    2.53530392035576
H         5.65073263476091    1.46380505233075    1.71804282021829
H         7.00705937411241    0.51647875610168    2.31935254733454
H         6.97590616143498    2.27032274267982    2.59352233203394
C         4.76850884048138    0.08694026975169    3.99606580104325
H         4.59359675965191   -0.59809759576542    3.18180815416417
C         4.12897432600897   -0.07302806187387    5.21117839045841
H         3.42872090476820   -0.88007269344597    5.36189458266303
C         4.40609760540309    0.81627221968073    6.23758546953315
H         3.91207422110000    0.72288826325913    7.19061903382430
C         5.31312758771442    1.84445142545696    6.00482673095210
C         5.71614069906621    2.79110740786271    7.05901638944955
N         6.14271615767246    3.98197207482047    6.64470300871581
C         6.62160312704502    4.86489034357592    7.51817105033957
C         5.71482027086645    2.44680970303702    8.40994421157417
H         5.38644922157128    1.47231819939917    8.73183001421190
C         6.18144266114051    3.37033603092999    9.33032389667299
H         6.19782300905659    3.13026232902103   10.38235313190951
C         6.65335253181223    4.59384603915491    8.88534105476561
H         7.06325490234396    5.30730015546415    9.58105163903544
C         7.17249974608637    6.10665311907443    6.94859026444358
N         7.64256501540063    6.01888119814832    5.69637183427285
C         8.22201027366264    7.07407756997555    5.13673957046887
C         8.76325562677448    6.90656475616891    3.75540640864502
H         8.53873616476521    5.90107672529906    3.38831639178206
H         9.84257049587318    7.04911365361284    3.75533469492118
H         8.32800069214301    7.64325674812551    3.08333424720427
C         8.34234775563087    8.28808215154005    5.81127328225310
H         8.82902169470175    9.12324766058256    5.33323531968996
C         7.82751568634040    8.40014730870504    7.08929831023198
H         7.88977179069522    9.33344140909685    7.62733071949166
C         7.23469787175673    7.29180420485895    7.67355204932204
H         6.81272034235673    7.35507003874898    8.66297896260888
N         5.94530031397947    4.98763737266699    2.41796259660530
C         5.58898647717020    5.33151621218515    1.38377920849762
C         5.15531957362420    5.75681714203400    0.09814326156649
H         5.89523465590827    5.47389390693279   -0.65082495604471
H         5.03252080941093    6.83981566102784    0.09128561602365
H         4.20169950201345    5.28679766744457   -0.14215261444749

