78
CSD_code = TIRQUG | q = 0 | S = 0 | Stoichiometry = C23H47Cl3P2Si2Zr | MND = 10
Zr        7.10422954056948    8.37481993356967    6.65753289425348
Cl        9.21059889629933    7.40016622248801    7.34084740827990
Cl        4.82701108350992    8.48151005052880    5.88442364920741
Cl        7.21132200937524    6.51350220333633    5.11265958900943
P         8.28583228347494    9.38431972526924    4.39736171957779
P         6.06400423212575    6.35413419788668    8.16457334000448
Si        7.07177727101403   12.02133458216427    5.53413596934754
Si        5.14644874814774    8.75274522783805    9.93987438272249
C         7.09104259804764   10.89915810185141    7.02675675084348
C         5.94976353910875   10.44524991645780    7.71206088853241
C         6.33281875524116    9.60721311639659    8.77886846298396
C         7.75671645082778    9.59249857799933    8.78867728908329
C         8.21903633494279   10.36672323119883    7.72148104848553
C         8.21553552427936   11.22612204008184    4.19900421021802
C         4.69531420033348    7.02788835144660    9.19542722525857
C         7.77650286413611   13.75494995258202    5.91734557803683
C         5.29313552626083   12.15287915601835    4.85812258651608
C         7.58887083664554    8.78491573585897    2.75711950871261
C        10.11820698013745    9.07882440484611    4.14061189369683
C         6.11376347193756    9.17315389530433    2.68243504528371
C         8.33574122041771    9.26329076596806    1.51384224140635
C        10.39216343437158    7.58734777744963    3.96997278850861
C        10.93547300507153    9.62357649282334    5.30971566736169
C         3.50765510931294    9.72358148477199   10.05850645757142
C         5.91257512011904    8.61547395646609   11.68532977047990
C         5.29146745525914    4.82918591225618    7.36873960838486
C         7.27894467520561    5.66624345248119    9.43116821958354
C         4.65149518195826    3.83216103415779    8.33272437515420
C         4.26340417854647    5.24842542180750    6.31888147828530
C         8.14006935017832    4.58835565896486    8.77060000036480
C         6.72174394346533    5.18201574382963   10.76721060912136
H         4.93534583798224   10.73592247307824    7.48712053387074
H         8.37684699681533    9.13169571280499    9.54683697004947
H         9.25396006920240   10.61795015868677    7.52909441565434
H         9.22473194555026   11.62693742623511    4.28256317555005
H         7.86150197890216   11.46642364414027    3.19810081629489
H         3.86587915735128    7.18370395127203    8.50125810853880
H         4.37542538669059    6.30131195875034    9.94084346382246
H         8.77830328401421   13.70336952651809    6.33154196908241
H         7.81958176236728   14.36545793991569    5.02152276273409
H         7.15241019310162   14.27171504280982    6.63769860467717
H         4.68292008209527   12.76359411281072    5.51556985744582
H         5.26715580177534   12.61281757629805    3.87478478934465
H         4.82294126860381   11.17561859913953    4.78583478896882
H         7.64363715683509    7.69123892831852    2.80499108366588
H        10.40147256575874    9.62385020289846    3.23002214713726
H         5.98981346639432   10.25282769477318    2.62149091490714
H         5.65646071653157    8.73035893859469    1.79929265727219
H         5.57756252878862    8.80412312629350    3.55625381884392
H         9.33402003242333    8.83899264753329    1.45154136973190
H         7.78662043672784    8.94515458876107    0.62894398515854
H         8.41545664675798   10.34823096488270    1.47980212851540
H        10.06157378007913    7.04207761376165    4.85314603150527
H         9.87741443299383    7.17684838201540    3.10470248752939
H        11.46060197164962    7.41735249248564    3.84521804599071
H        10.72411187606862    9.05455304428378    6.21325576784534
H        11.99785234645126    9.52258861148263    5.09218659863393
H        10.73196186649287   10.67815569961443    5.49335118845547
H         3.68007968821133   10.73256681409611   10.41686292088393
H         3.01552586014249    9.79441647622094    9.09379546207380
H         2.81744564707604    9.24485961053392   10.74570892104614
H         5.28778594621678    8.02718364753622   12.34984658958207
H         6.90446985184266    8.17612836850358   11.67789191759326
H         6.00042461625506    9.60613446917466   12.11884549987875
H         6.12316813190430    4.34329131278553    6.84226564442387
H         7.93318320233207    6.52606048509628    9.64172989697713
H         3.88569087624569    4.30720916738025    8.94169934670446
H         4.17196752475199    3.04189005382614    7.75613563981865
H         5.38266462437366    3.36232201114663    8.98327148915545
H         3.42465764053277    5.77488657946040    6.77093176379327
H         4.71350740842151    5.89041055632349    5.56550455080473
H         3.87481137818810    4.36472489680267    5.81510568175714
H         7.59697278736590    3.65129024534940    8.67561549093882
H         8.46205531170093    4.90844725187079    7.77964248977606
H         9.03081400691920    4.40461195120457    9.36877008780451
H         6.17981324337679    5.96815127911665   11.28261942933792
H         6.06453690525175    4.32608980034546   10.65176545616865
H         7.55349794016209    4.87708764096472   11.40161258398050

