30
CSD_code = TIRROB | q = 1 | S = 0 | Stoichiometry = C10H16O2PW(1+) | MND = 10
W        -4.02739289661626   -5.67554023768341   -1.63977071330051
C        -3.47112708294496   -3.73914811682274   -1.82338243759564
O        -3.08417556630963   -2.68059762868398   -1.97515338296981
C        -2.07808597260078   -6.11997275447660   -1.41906271106300
O        -0.96125685402177   -6.34711039027339   -1.44720843108654
C        -4.57778664733947   -5.00229749393680   -3.81193241772890
C        -3.32944031976333   -5.69140594316154   -3.83280055280972
C        -3.56947531345411   -7.03497435124117   -3.43721713299349
C        -4.96574672894336   -7.17304467046182   -3.19041457655418
C        -5.58278989559137   -5.92256747634958   -3.41949769621672
P        -4.51950443584431   -7.70206716199907   -0.19631323044169
C        -3.70681513883871   -9.28682395966320   -0.62728483074726
C        -6.27152480874132   -8.17050703674490    0.01548463863138
C        -3.99337385088464   -7.47407974667834    1.53487226693548
H        -3.61806910626407   -5.15432010573252   -0.09659680641343
H        -5.44834199809526   -5.16232167828110   -0.97080284809465
H        -4.76259525255239   -4.01476040788844   -4.21821117601622
H        -2.41129950090678   -5.31192132896231   -4.26370571438920
H        -2.86656367598927   -7.85400508275337   -3.53380431619848
H        -5.49312747449815   -8.11182027668430   -3.06745798147350
H        -6.64908532768802   -5.73924163810337   -3.45294209825204
H        -4.03910000755413   -9.65310688300942   -1.59719668979937
H        -3.95225594778231  -10.02927494273747    0.13205816383869
H        -2.62619483530536   -9.14825715564471   -0.64845424020050
H        -6.71918514099965   -8.47512851428668   -0.92851168790478
H        -6.81564320471842   -7.30921333220156    0.40087472714582
H        -6.34390830986308   -8.99274681784132    0.72783075108164
H        -4.50923232540249   -6.60899012566698    1.95225278920614
H        -2.91878239086847   -7.29465301252983    1.57515321135582
H        -4.23651998959705   -8.36260172953330    2.11879512404602

