59
CSD_code = TIRSIX | q = 0 | S = 0 | Stoichiometry = C21H29Cl3N4OTi | MND = 6
Ti        8.04690441974919    2.97925182838374    4.00978689056470
Cl        7.49295195118783    5.05371073805847    3.50360436671305
Cl        9.34194425113581    3.52446640309689    5.70911295892637
Cl        9.71477943941254    2.84737321066587    2.55166292004030
O         6.60191390901185    2.67987994493832    4.90978888616263
N         6.80613644655232    2.09415995522039    2.41062137519329
N         5.97207573174159    1.08631549393936    2.73733484313039
N         8.40072953475955    0.81641492170384    4.29104471728007
N         7.32926894731694   -0.00102724504669    4.31911464585606
C         5.12633087322641    0.80183670312168    1.71732074512047
C         5.44816398880541    1.66731730559003    0.69578612655133
H         4.98520519416897    1.72479193480025   -0.26773668414454
C         6.50606330468154    2.46217887033832    1.17112221782087
C         7.21853734645977    3.54990885428130    0.46291388962295
H         7.13815427499437    4.47639351024121    1.03524730985720
H         6.80144976461373    3.69136337296635   -0.53023529923832
H         8.27998590903299    3.31081719556750    0.38837790627691
C         4.09046421834660   -0.26050825892191    1.78617467173542
H         4.54036657127626   -1.23605301845532    1.97056112020677
H         3.55861534482941   -0.30150121109204    0.84015856989881
H         3.37024205337130   -0.05566909212386    2.57813104700732
C         7.68140112264317   -1.26018603799900    4.66996552850737
C         9.04375009629918   -1.23882427350823    4.86822297561014
H         9.66455878619638   -2.06283594335211    5.15350189989723
C         9.45739571496603    0.08122421080572    4.62188143114223
C         6.71278653443727   -2.38060851454982    4.77994050103504
H         5.91040086395646   -2.13974856245761    5.47660838110714
H         7.22990022461095   -3.26510081450141    5.14019221022540
H         6.27192276792382   -2.61270924971406    3.81012743850243
C        10.82770076963401    0.63416496386150    4.71463239256368
H        11.13562111234255    1.02730019410377    3.74486994844024
H        11.52298613566671   -0.13551850104113    5.03788117452869
H        10.84220552793485    1.46924736840038    5.41852929995884
C         6.01679117439446    0.52671880017383    4.06462909736267
H         5.28062826601100   -0.27726122019144    4.14646309513059
C         5.70385354520521    1.67752891254834    5.09630538059411
H         4.67808882793483    2.03320255643978    4.86167544151297
C         5.74290130632562    1.16355691298957    6.52055626495443
C         7.06132934625532    1.10725590242941    7.23354121927683
H         7.91870222682731    1.34687832347521    6.60616428656966
C         7.06331292910927   -0.17353668997217    8.08758870966917
H         6.56751283826350   -1.04380925567732    7.65893325500042
H         8.05220278394462   -0.45803277273435    8.43220862565255
C         6.25123839884667    0.63001478002298    9.11582135462239
H         6.38206870854457    0.40509437775775   10.17473721911820
C         4.78474924692918    0.55088759963417    8.69477263253240
H         4.39192418255401   -0.45152525962522    8.89535126700923
H         4.17602024168498    1.25251317930131    9.27144573203885
C         4.65744351594823    0.87422062632774    7.23289819570615
H         3.66172552850050    0.90567510640434    6.81173587874867
C         6.93070075036430    1.90912556601936    8.55841588274959
C         8.29807813216737    2.18110844365894    9.17643242608136
H         8.84922235099445    2.86446101103620    8.53306535695049
H         8.88746835738948    1.27728108094161    9.29548406983564
H         8.18156114406343    2.64110158783440   10.15580110636257
C         6.17235155579000    3.22670535682065    8.49979648831182
H         6.13737788879913    3.68624651300387    9.48547369475597
H         5.15637190085786    3.11591023013967    8.13498855089657
H         6.70046172100459    3.89605207390641    7.82036836246150

