19
CSD_code = TIRTET | q = 0 | S = 0 | Stoichiometry = C6H7IMoN2O2 | MND = 8
Mo       -1.43410453861399    2.29443921368803    1.68197920066765
I         0.59230334612830    0.28279568808977    3.77603739228071
N         0.18643253249068    2.80113066935305    1.22721083931933
O         1.23862189807586    3.18131230506950    0.87686782485626
N        -1.77312858951305    3.97974589558109    2.03523973528562
O        -2.01227576276219    5.11528587469949    2.20736292890521
C        -0.77046168121974    1.97229874702686    3.74724534750472
C        -3.52827458484355    1.26699577028287    1.71137963459563
C        -2.57294976734526    0.25701351500667    1.97404305885710
C        -1.73956968907291    0.12607834482272    0.84622302226050
C        -2.19778252527266    1.03810317372064   -0.13915247074712
C        -3.31132328929278    1.72790140334037    0.39028382029932
H        -1.56763963553915    1.69646763766385    4.44228826079996
H        -0.19941546342887    2.77986630593311    4.20854074495925
H        -4.40797789365306    1.47425310458224    2.31193536652105
H        -2.57562549094947   -0.40418476869460    2.83368531973283
H        -1.01421221274027   -0.66409463831109    0.68511719148270
H        -1.86895527718159    1.06629164359019   -1.17181453915406
H        -3.96356137526640    2.39500011455547   -0.16177267842623

