31
CSD_code = TIRTUJ | q = 0 | S = 0 | Stoichiometry = C10H15ClMoN2O2 | MND = 8
Mo        7.26088191866074    1.09506259564013    7.45974075730419
Cl        8.10371579332729   -0.19526190963170    9.30317379831967
N         5.54936415915172    0.86696355968931    7.80601335436320
O         4.38695500392263    0.81057532499641    7.97190782010623
N         7.20467905471810   -0.21944013244159    6.28918274422386
O         7.16660467596529   -1.01504654168366    5.42462879382167
C         8.77546089036943    2.40835845694846    6.26461997299967
C         7.49545649599589    3.06210373496935    6.30298263994881
C         7.23088075559787    3.41890024681775    7.67040445062049
C         8.28701724909988    2.91743633676090    8.46492223564946
C         9.24592229629426    2.29073869618542    7.59233069077001
C         9.53040547167693    2.08120593845582    5.00800365782471
C         6.77056090276115    3.61459344877977    5.10902494220822
C         6.11349690880654    4.31705990551987    8.11841714672694
C         8.53694577634108    3.19424145880918    9.91882938814764
C        10.60852060838748    1.84235666476301    8.03401619273675
H        10.03536991952403    2.97715384015254    4.64001992735061
H        10.28293967270251    1.31508822552393    5.18627482681459
H         8.86079559879622    1.72528804976437    4.22575041008329
H         7.17679725206519    4.59474145605906    4.84865095312485
H         6.88122287964442    2.96056984853558    4.24606700326515
H         5.70805918738505    3.73063553159280    5.31466811229144
H         6.39464074425301    5.36011422208457    7.95679429036260
H         5.20028118185346    4.12227774389849    7.55712940579305
H         5.89754520382205    4.18268466385913    9.17687651946541
H         9.28718269658364    3.98146912696244   10.02204190579132
H         7.62763770058727    3.51821663499290   10.42176363066800
H         8.90724269986351    2.30182458937069   10.42292494979284
H        11.23105878789209    2.71282619859680    8.25308451324123
H        10.54105087567154    1.23533723775962    8.93656259539022
H        11.10070763827640    1.25352484626873    7.26219237079726

