34
CSD_code = TIRTIX | q = 0 | S = 0 | Stoichiometry = C11H17ClMoN2O2 | MND = 8
Mo        1.17942380901540    2.43207692258535    3.77147603195016
Cl        2.27684045391502    0.91435173523836    1.21522667782031
N         2.02736833661601    3.79440811185509    4.48263517945166
O         2.52642784485338    4.70849770574508    5.03086450991664
N         2.38770419413227    1.33103958852506    4.42049156365216
O         3.15515686250545    0.60295984934036    4.93303388239695
C         2.30133011318715    2.56082021033117    1.88678816380495
C        -0.94182426997387    2.94727758846226    4.55070325633279
C        -0.80300018346588    1.52945703993519    4.55827609214893
C        -0.64717588528243    1.09487430409122    3.20170359128972
C        -0.71102495312533    2.24197803930884    2.36566207796932
C        -0.84261535562285    3.39485938398353    3.19708488270675
C        -1.30705063853522    3.80495510446476    5.72721522366624
C        -1.03391427424425    0.62807724520283    5.73725513736750
C        -0.73709692988491   -0.32977962515252    2.73112738579404
C        -0.88116750261096    2.21295235130450    0.87532038055213
C        -1.17439163939914    4.78413974176198    2.72330906607090
H         3.36296358978791    2.82126574472024    1.95489555201856
H         1.86036518628557    3.19642069064030    1.11188525926349
H        -2.39287137746045    3.90958854177458    5.78705443653664
H        -0.95725614581751    3.36534610625225    6.65983429872233
H        -0.87638535367629    4.80173036822712    5.63887799871116
H        -2.09437749508406    0.37358556075289    5.80561066054126
H        -0.46999889118654   -0.29894779362589    5.64153904175881
H        -0.74086240012755    1.11048833255766    6.66857099820349
H        -1.78521477547097   -0.61087026258725    2.60064317309844
H        -0.22866831003959   -0.46025900817420    1.77770134967008
H        -0.28991647834756   -1.01397649170803    3.45119750907040
H        -1.91650311771247    1.95597446778276    0.63961774714939
H        -0.66620513120687    3.18258114091002    0.43040528038356
H        -0.23647873532535    1.46833754507981    0.41209256534813
H        -2.25383709834967    4.88300237634198    2.58374231342986
H        -0.85769456227846    5.53303107594869    3.44818417800770
H        -0.68884888607132    5.00635630812915    1.77407453519174

