34
CSD_code = TIRVAR | q = 0 | S = 0 | Stoichiometry = C11H18MoN2O2 | MND = 8
Mo       -0.06896425995815    1.13039038711477    2.96784925198468
C         1.86992359198249    1.80530096100066    4.05692949351432
C         2.27069604284661    1.35629984182981    2.76776630183712
C         1.91939601103239   -0.01999361616990    2.64585404684432
C         1.36654950107050   -0.44172360263105    3.89460713553755
C         1.33429899804758    0.68369238145261    4.76522721938100
C         2.24254434839317    3.12367132707931    4.67976033371768
C         3.14935995039918    2.11536163438589    1.81744712311315
C         2.36660802181532   -0.93933824113786    1.54157285530027
C         1.07269270133211   -1.86260711519096    4.28205973285350
C         1.00182961539938    0.65555125818486    6.22907352444980
N        -1.30905393821630    0.07754825788104    2.30636408504000
O        -2.12384408169642   -0.68638482099080    1.92522822360911
N        -1.29390682904703    2.15535485006230    3.69805920528506
O        -2.09682714819214    2.80851091981538    4.26479138852740
C        -0.04881669432020    2.35267084788778    1.13943935035198
H         3.23029180031405    3.05233973881108    5.14270290685934
H         2.27523860433378    3.91702929629055    3.93423281060039
H         1.52831561325120    3.41262098829392    5.45026998525194
H         4.19609872871280    1.93055334631052    2.07175314727807
H         2.99333404409608    1.80083073720894    0.78772280369703
H         2.97311800868920    3.18739903929876    1.87823157434551
H         3.36604049265214   -1.32558732128305    1.75858299322573
H         1.69152883073286   -1.78806341235977    1.43604137207107
H         2.40690921221871   -0.41797538160658    0.58632427083716
H         1.98049715301454   -2.33871341145059    4.66094345049520
H         0.31493604736218   -1.91154324041514    5.06251563708390
H         0.71938747157756   -2.44035310469174    3.42860977885887
H         1.90162319484781    0.43759630894882    6.80985457708901
H         0.60826596710674    1.61462002416417    6.56368451227327
H         0.26212215121431   -0.11170551410138    6.45217464450414
H        -1.04308914831579    2.59388983926263    0.76045002398292
H         0.45999597429051    3.30556056750646    1.29964894684144
H         0.47470002301293    1.84199622923852    0.32822729335816

