45
CSD_code = TIRVIA | q = 0 | S = 0 | Stoichiometry = C14H22Cl2N4S2Zn | MND = 4
Zn        3.98163615393072   -5.46110494454859    3.96906783177765
Cl        5.17962907676200   -5.87717815130109    2.20863907446911
Cl        2.02728656513317   -4.37771291746743    4.03129617463396
S         4.64679630501096   -6.48116812377252    7.35335347042378
S         3.25724292860516   -4.99511861276792    7.21638604393079
N         3.75790054955433   -7.29333604508261    4.93387739776594
N         4.00459936465271   -8.98193903203212    6.33337791867772
N         4.91960407192555   -4.13269071956397    5.28502305910609
N         4.06161094012478   -2.46206617462873    6.45371888760524
C         4.11305728833211   -7.64664224008751    6.15237348435129
C         3.39769544892921   -8.43281485726186    4.29265939521306
H         3.06400074430081   -8.41279252180170    3.27522066677337
C         3.55128463370335   -9.48387874355411    5.14413013345490
H         3.37151351023801  -10.52311702554931    4.97772786972753
C         4.33204913597580   -9.74335839548245    7.54399209913411
C         3.40073355976322   -9.29845910681807    8.67525209005439
H         3.57228769224281   -8.26012747809641    8.94082860852286
H         3.57879391092253   -9.91038037259723    9.55471627547175
H         2.36150086140031   -9.41663812295191    8.37634490431588
C         5.79942959771679   -9.49064557601883    7.89801562217871
H         6.44280092065349   -9.78494179644065    7.07174140437559
H         6.07052646222541  -10.07327748389245    8.77382702740921
H         5.97412079205893   -8.43997364991705    8.11584174283757
C         4.13098118512087  -11.23702584914762    7.28723902166803
H         4.76815593002953  -11.58711865621693    6.47882027731016
H         3.09283657243058  -11.46148305788183    7.05486798654266
H         4.39867591488795  -11.78543762270259    8.18645308645053
C         4.10497351067734   -3.79467973348847    6.26639540340236
C         5.43888698513889   -2.96549542522929    4.81554609542512
H         6.14636403921671   -2.96561347335747    4.01115018927582
C         4.91410389029630   -1.92900135166195    5.52352533594056
H         5.08121820960451   -0.87953899123928    5.41988930850664
C         3.18241148005665   -1.73594166173880    7.37469601054342
C         3.26718828610655   -0.23627402707151    7.09260311169377
H         2.96763059860477   -0.01793461835137    6.07062717922416
H         4.27046846767684    0.14517543456810    7.26796373720989
H         2.58973551793331    0.28623098196300    7.76275309767399
C         3.63749957005656   -2.01255034884476    8.81071390796520
H         3.57194366879899   -3.07149440120372    9.04433015459201
H         3.00239895373621   -1.46911416235520    9.50429851642182
H         4.66577874876348   -1.68607042412479    8.95243548910092
C         1.74616984646274   -2.21096834807625    7.14005224580684
H         1.51596569431540   -2.21293246755311    6.07685775185431
H         1.04839693992491   -1.55484389662347    7.65230428741849
H         1.59941547598903   -3.22222580805497    7.51276662374328

