59
CSD_code = TIRWAT | q = 0 | S = 0 | Stoichiometry = C24H26Cl2N4NiSe2 | MND = 4
Ni        4.66321170029263   12.34872647541240    3.01666461172397
Se        6.67977428992454   10.11657113109549    2.17743632606268
Cl        3.48829142062879   10.58458632523304    3.05191443103658
Se        7.59319475251774   11.53464544614836    3.72445534608525
Cl        5.70527739309536   14.19380536155570    2.98485571330687
N         4.90523136632904   12.18402463720307    1.17557469807227
C         5.88504061646252   11.32384721710140    0.93370768836324
N         6.23307163609169   11.36359452267665   -0.36722466687319
C         4.62284328071301   12.80043388700677    0.00455456414094
H         3.86982374679536   13.56034239174760   -0.06396786434380
C         5.43729209033102   12.29060287822577   -0.96727503857223
H         5.51653264510548   12.51602559257594   -2.01108901615550
C         7.26127691733014   10.59021650425114   -0.96428798498463
C         6.92194071441829    9.41364544059373   -1.63223664830407
C         7.94053891829972    8.67985029551161   -2.21835652676786
H         7.69664668961366    7.76602073916243   -2.74030807079222
C         9.26491952981528    9.09107489981818   -2.14356918959119
C         9.56890685331634   10.25947591960814   -1.45928461875922
H        10.59750897158485   10.58147475210435   -1.38844374105895
C         8.58207961595097   11.02624055494823   -0.85817184887333
N         4.98975093765426   12.16247348838256    4.84290468497874
C         6.20624318962363   11.66729203912906    5.02615563804443
N         6.37477749942902   11.30251316774519    6.31221102385699
C         4.35594831522850   12.10531286856592    6.03692555397761
H         3.34218965581213   12.43433344642502    6.15205325974139
C         5.21231912082120   11.58005664647787    6.96348303378540
H         5.08462697117657   11.37896703181097    8.00742548084548
C         7.54783481103173   10.71436404902059    6.85072606853095
C         7.74888878051473    9.34236513389074    6.69324872198010
C         8.89681547368115    8.78859903141423    7.23798902909278
H         9.07092047123002    7.72833930173466    7.12752094729512
C         9.82590443015555    9.56402305392754    7.91897239784629
C         9.59996277620013   10.92749181410104    8.04620393109871
H        10.32217484681554   11.54088629515499    8.56468649155210
C         8.46727826233567   11.52487754819014    7.51548636347398
C         5.49457646579001    8.96490323922381   -1.68728864325794
H         4.88351433918004    9.67780267292971   -2.24065218271430
H         5.08270301072704    8.88634916395494   -0.68030667063128
H         5.41633803721082    7.99505529531735   -2.16980522445940
C        10.35030428094322    8.26681234716769   -2.76337200773496
H        11.20395995446705    8.88439771465900   -3.03082749867430
H         9.98995985486238    7.75416290277422   -3.65187242813985
H        10.68865802612045    7.51188293785600   -2.05329074748700
C         8.91792856482506   12.26950404893158   -0.09616217025989
H         8.84696610828015   12.08240276433176    0.97979885143742
H         8.23382807551084   13.08237596416024   -0.33398850308984
H         9.93290622119160   12.59010045101311   -0.31284048328027
C         6.76345718533836    8.50610622975944    5.93895652852150
H         5.73831862819467    8.75003575335636    6.21269773011468
H         6.93476284109113    7.44977126588875    6.12558637484603
H         6.86804872381669    8.67851473641128    4.86323640721778
C        11.06438709194519    8.93675607536508    8.47973867207241
H        11.51460818352156    9.57164707079645    9.23836300876592
H        11.79417291174681    8.78610577006037    7.68404551320821
H        10.84160657335057    7.96567301531005    8.91631788255722
C         8.22842954321292   12.99870933047788    7.62772233374892
H         7.33609569127161   13.20441262645235    8.21867350604146
H         8.07969822016463   13.43521280491167    6.63924869705151
H         9.07533277687166   13.48910593098369    8.09878026436989

