44
CSD_code = TIRWIB | q = 0 | S = 0 | Stoichiometry = C14H22ClCuN4S2 | MND = 3
Cu       -0.15823076028688    6.96068633990372    2.40655386311342
Cl        1.06388345900036    7.60302976548057    4.04532315227976
N         0.26508170741952    6.70754715967334    0.55406502690883
N        -2.03375783645966    7.00119266353826    3.04849154516444
S        -1.54312787260627    8.56915407236096   -0.13818918677120
S        -3.13332418501356    7.41108666797045    0.63024562358201
N         0.11412291942203    6.93189659120645   -1.64471985570553
N        -3.88687815837527    8.21964477601069    3.16700182946905
C        -0.33581431912381    7.35755605600096   -0.43483169739729
C         1.11882139519722    5.82815949546781   -0.02677197438749
H         1.73287490115142    5.17514145428155    0.55869873474073
C         1.03935073542958    5.96497740197833   -1.38076184684832
H         1.57947858196806    5.44559196400652   -2.14171354434250
C        -0.29955709880115    7.42239437386198   -2.96251950071997
C         0.49304007006150    6.70507517893379   -4.05586528692516
H         1.56047757213610    6.88318371201359   -3.94963220298446
H         0.18329974391943    7.09189630510947   -5.02301611944354
H         0.30061200576526    5.63487624026694   -4.04547248610557
C        -1.79131426444245    7.13076116844605   -3.15254686804629
H        -2.39533273195381    7.67975826906188   -2.43695912737077
H        -1.98660867351126    6.06764446790839   -3.02821653661634
H        -2.09579518930284    7.42435765349788   -4.15296623896727
C        -0.01189008810730    8.92425163776323   -3.04299164818976
H         1.04667792507048    9.11472047792268   -2.87951781474934
H        -0.58096269062920    9.47287705701141   -2.29751683974481
H        -0.28380377670540    9.29616156340726   -4.02671911385616
C        -3.00142967831985    7.58351940702402    2.35248044954366
C        -2.29154955253199    7.27276467758349    4.35378288999974
H        -1.63217462244297    6.93525073268581    5.12712083913745
C        -3.43115428987684    8.01532557711679    4.43749725752276
H        -3.92454577400188    8.39346362896640    5.30577080457646
C        -5.06877165120217    8.98790273673493    2.76740848399069
C        -6.05338299178237    8.05210074994612    2.05916304628565
H        -5.61643995318001    7.63377483325520    1.15666114885823
H        -6.94912236398663    8.60288696612246    1.78644978075721
H        -6.33529217273544    7.23398946805042    2.71863333858679
C        -5.74693525779970    9.57877568936807    4.00427124247862
H        -5.07733590502588   10.25070467480128    4.53566084823170
H        -6.08695152032945    8.79691401724206    4.67918063587136
H        -6.61600376319976   10.14988154222493    3.68812489900528
C        -4.62954064203994   10.13249600297739    1.84864966280344
H        -3.86562494929289   10.73405841297375    2.33687905813718
H        -5.48111441803216   10.76882883863133    1.62498946101506
H        -4.22935386545481    9.75913953124321    0.91112426710756

