45
CSD_code = TIRXOI | q = 0 | S = 0 | Stoichiometry = C14H22Cl2N4NiS2 | MND = 4
Ni        1.66143949162776   -7.80250986249700    8.77267295466612
S        -0.01522822807012   -9.76720239823806    7.20702819868047
S        -0.86595861825251   -9.36398520895905    9.03855227592237
Cl        1.99171344978917   -8.55470774950526   10.72064504272314
Cl        1.61535492853741   -6.81278788204577    6.89664758350778
N         2.53977537614030   -9.28414637759154    8.03790280163198
C         1.68466365371881  -10.14165674162930    7.49799498920859
C         3.74625279685477   -9.88976767342855    8.06015271575932
H         4.61165688294290   -9.40815434708266    8.46932636663888
N         2.31139134689025  -11.29197877745338    7.15101875710692
C         3.61918930537674  -11.12933828755758    7.50340412462963
H         4.36629301017214  -11.87594077537841    7.34619490274760
C         1.71165449999616  -12.46803578019264    6.51324566329477
C         0.62638664308614  -13.03039244027154    7.43634820867661
H        -0.19980912634714  -12.33487537694949    7.54525283557201
H         1.04034552990924  -13.23634311071519    8.42105744888011
H         0.24027893432580  -13.95733415722732    7.02238779085771
C         1.13450992083211  -12.05175492463987    5.15762330603761
H         1.91721857747217  -11.63622464264334    4.52672399479532
H         0.35467165535142  -11.30404457045302    5.27538498635587
H         0.70953182795412  -12.91828861702295    4.65901827905055
C         2.78040055826424  -13.53892210054431    6.29079369221101
H         3.57113403681495  -13.17794288401844    5.63758334547660
H         2.31894866248437  -14.39903983569936    5.81315638766471
H         3.20975421281742  -13.86886316324352    7.23366362814924
N         0.14110325770772   -6.84647912594908    9.31020811564677
C        -0.93922060736563   -7.60858662676578    9.20336754151086
N        -2.06622708638545   -6.86522470546807    9.32370576878089
C        -0.28556222616400   -5.57898827051798    9.48885110664202
H         0.39977581756829   -4.76093549609224    9.58619374765963
C        -1.65109396081811   -5.58018365280753    9.50965057092238
H        -2.32172653562885   -4.75937920482506    9.64013840506010
C        -3.45091442192864   -7.34437820890373    9.27118515862453
C        -3.67688798090068   -8.32086902048918   10.42856881436547
H        -3.01529367129572   -9.17955120858372   10.35208624530573
H        -4.70422361043146   -8.67358687572170   10.41443595237858
H        -3.49176377988448   -7.82679200804775   11.37991223464837
C        -3.69037933202205   -8.01622007126248    7.91546494886118
H        -3.10925545581704   -8.92749787881948    7.81616585621854
H        -3.41819367196559   -7.34027710798128    7.10771998179195
H        -4.74180904643850   -8.26964111336003    7.81513467767233
C        -4.41326313972041   -6.16503287882791    9.41751502942471
H        -4.28233755687463   -5.66378618566152   10.37346627400073
H        -5.43287753612451   -6.53830674846264    9.37311631337458
H        -4.28201878420063   -5.44864592647880    8.61013297688609

