59
CSD_code = TIRXEY | q = 0 | S = 0 | Stoichiometry = C24H26Cl2FeN4Se2 | MND = 4
Se        6.23029688187913   11.49077869138447    2.15019471728127
Fe        4.13197950904948    8.19853883156592    2.73764949435289
Cl        2.25741217968538    8.78664195181939    3.06152602816464
Se        7.44930552816483   10.06668317418475    3.49452967645367
Cl        5.89537062683705    7.27046548450710    2.41314597930281
N         4.56552376637242    9.58093608275180    0.82397055907683
C         5.64909001878573   10.32891267391550    0.78159558734691
N         6.27435609256877   10.23377996677470   -0.41531324168577
C         4.48986374356119    8.97447337185183   -0.38933097044406
H         3.68362009416691    8.30806918042125   -0.62282471172785
C         5.54346824697764    9.36727086927458   -1.16669327197149
H         5.82446503012730    9.10935197943924   -2.16760915592521
C         7.48655304048597   10.87197016374721   -0.77793998139324
C         7.44851952008565   12.17517099853582   -1.27098620116896
C         8.64695681464362   12.77928853336374   -1.62026874992572
H         8.63219132761918   13.78875042435945   -2.00457873359813
C         9.85736048745699   12.11645067151344   -1.48234537163164
C         9.86114107854122   10.82071451686939   -0.98131859710562
H        10.80124232675400   10.30119742137777   -0.86599291441332
C         8.68770493009611   10.17767722135908   -0.62195538174392
N         4.98706083557544    9.25635954773229    4.72373261750584
C         6.16656694879622    9.82402839639690    4.85882837200767
N         6.35826115055769   10.27266844172501    6.11962908561910
C         4.38895082773415    9.34488524268009    5.93908744046069
H         3.39945108944433    8.96355184256329    6.09018193084777
C         5.22895904359555    9.96619207480591    6.81858872412595
H         5.12168515630814   10.21286123688831    7.85526118501260
C         7.51748765378654   10.92771402650699    6.60559558153376
C         8.53265587223631   10.16463120890451    7.18163831581359
C         9.65131221063378   10.82266804072476    7.66904208516085
H        10.44477665734893   10.24461484877037    8.11979603975288
C         9.77233648300357   12.20228089151821    7.58533476289740
C         8.75078686723068   12.93177624863397    6.99097375256699
H         8.84319279791477   14.00522061367846    6.91289793111943
C         7.61435461883866   12.31509422796022    6.49277939051304
C         6.14212555091876   12.89592041219928   -1.40088916350571
H         5.42091280738977   12.29984722748948   -1.95920375368162
H         6.27752099174127   13.84763228455929   -1.90689141473289
H         5.72038581572640   13.08796764386275   -0.41133234655767
C        11.14650423995877   12.77296485727922   -1.87006443708437
H        10.98991292173038   13.81464885528700   -2.13678215645576
H        11.58722003159241   12.25938828853105   -2.72401802545166
H        11.85948716352918   12.72396477804671   -1.04908602764478
C         8.69423417238162    8.78432308297229   -0.07744414378971
H         9.70994783347793    8.40706025207974   -0.00186675877937
H         8.11918600943324    8.11332528294849   -0.71489984350834
H         8.24056882793378    8.75057914051494    0.91522416135925
C         8.40579409148829    8.67402526408740    7.24956372582338
H         9.28959873503162    8.23340624542220    7.70196271656087
H         8.28546233604025    8.25973861123997    6.24714653161604
H         7.53284761621101    8.38426393263119    7.83436915087945
C        10.99083610420526   12.90134111561497    8.10415503096011
H        11.58443151714229   12.23982879454610    8.72946397469084
H        10.71217264905138   13.77921269552386    8.68361781686148
H        11.61026729027961   13.23448016788795    7.27168423711606
C         6.52769454041584   13.10183809908646    5.82900551807450
H         5.54474227517752   12.80244788502178    6.18956139599174
H         6.55049877504402   12.93373947596698    4.74773463244109
H         6.65948824699883   14.16528650868583    6.00766720466002

