39
CSD_code = TISBUS | q = 0 | S = 0 | Stoichiometry = C16H14N2O6Zn | MND = 6
Zn       -0.19991133401768    7.93904735230805   12.83523629544421
O         1.49870631022348    7.02373961452530   12.89657174398745
O         2.74796606721757    5.39845727992078   13.74756823126032
O        -0.50620405964920    6.55254493027938   14.45078930185677
O        -3.93172061627461    7.16217588304037   13.93990719803959
O        -2.09461081751327    7.94046306013435   12.96538715936255
O        -0.41007572954448    6.45558128540536   11.01252417208299
N         0.04329344849018    9.45821098149526   11.46698912382270
N         0.21161845430770    9.51043890985388   14.15451798363120
C         1.71619375419670    6.03003235102606   13.66072813294684
C         0.49534527306425    5.56450799843614   14.52725855792740
C        -1.85473459472453    6.15928861831924   14.56516960449643
C        -2.73280770378344    7.18281251632293   13.76139369504125
C        -0.05891338185513    9.41171492441230   10.15942143625893
C         0.02227043316421   10.55270301959770    9.35319412831826
C         0.21644985276384   11.77747373262132    9.94301638584273
C         0.32522645893815   11.85161278806808   11.34215379464654
C         0.32138810093192   10.67117453436964   13.49614872458124
C         0.22642720040168   10.64293965104507   12.06579271133092
C         0.52045514371205   11.90227220292432   14.15849703558071
C         0.60720978952257   11.87345028345615   15.56099910218260
C         0.49650616827976   10.66994406578023   16.21347926916183
C         0.29616377453138    9.50559544026187   15.46341407238750
C         0.52456132981640   13.07608917667095   12.04335795067848
C         0.62002207682320   13.10073438686742   13.39448218634172
H         0.45317285371250    6.03750428825335   11.11723360812448
H        -1.08475217189794    5.79945959429909   11.20844229114789
H         0.14941940861675    4.60373672574846   14.12408330074153
H         0.82316496181103    5.40790603247974   15.56226824762278
H        -2.17864615296749    6.14784755104447   15.61288312164527
H        -2.02515597732417    5.16350005769425   14.13592020673048
H        -0.21523737792855    8.43374458182199    9.73078089157489
H        -0.06940632456094   10.45814524969926    8.28287287037945
H         0.28431457704063   12.68075933835838    9.35404577057900
H         0.75848354365764   12.79445004228792   16.10530095366535
H         0.55900439312637   10.61047340133458   17.28845355201623
H         0.20220316179184    8.54359426179576   15.94521759913720
H         0.59687524613010   13.98641868949377   11.46684404912580
H         0.77113445976902   14.03055519854623   13.92255554029820

