37
CSD_code = TISBOM | q = 0 | S = 0 | Stoichiometry = C14H14N2O6Zn | MND = 6
Zn        2.89811948616652    2.83384893186546    3.16347023124076
O         2.66051983968580    2.10845178332880    1.39668575398435
O         3.38408758851844    0.76445826853540   -0.21546756411217
O         4.74948099040988    1.78191783645327    2.87043175051775
O         5.10145399456099    1.98892217553785    6.36389692263511
O         3.54333052239693    2.70494132379295    4.95298885878988
O         1.57143956836668    0.95868788461456    3.66327750496163
N         1.28016521510577    4.05728395082130    3.46399299049047
N         3.72982633789598    4.69059651969880    2.71734536735131
C         3.48322651229729    1.29370274438648    0.87133800369060
C         4.72117371207912    0.91611242089048    1.75894458460289
C         5.30241715166494    1.31516333805978    4.07978180709805
C         4.60289270618986    2.07574119828001    5.26213396041232
C         0.06763392294708    3.65470036755579    3.79805098479354
C        -0.97277351364480    4.53726334359215    4.04839906585877
C        -0.72334697783063    5.89462733039664    3.93904148645762
C         0.54943386311715    6.31417589035431    3.59101502018213
C         1.54228210448382    5.36241647028735    3.36198136600686
C         2.92359092953445    5.71750624168542    2.99154530731700
C         3.38743923427151    7.03079708313600    2.92537177716102
C         4.70241605219293    7.26491490405610    2.55948029276521
C         5.51954235825140    6.18634317757176    2.26560487831663
C         4.98214214235294    4.91149037255042    2.36408246443004
H         2.05977138093933    0.38337220398980    4.25931411974064
H         1.54476411571259    0.54210625547777    2.79390926780983
H         4.60625822598976   -0.13236467796126    2.06304571249357
H         5.63655426582299    1.00508934270234    1.16101148139329
H         6.38308624973502    1.49776805269662    4.12062217754446
H         5.12463036533618    0.24103381998458    4.21995314285917
H        -0.06780707873196    2.58686292054225    3.87025405256708
H        -1.94825669852194    4.16776665243478    4.32032121819709
H        -1.50359696018279    6.61837148134518    4.12151430722978
H         0.75639699222652    7.36738139876910    3.49799184306411
H         2.74419980041735    7.86220025392998    3.16143512459387
H         5.08014346243536    8.27504810777352    2.50609111065747
H         6.54763991634913    6.32564325550963    1.97296735447376
H         5.57452222145824    4.03385737535449    2.15247627242419

