121
CSD_code = TISBAZ | q = 0 | S = 0 | Stoichiometry = C52H57ClN6P4Ru | MND = 8
Ru       16.37892598939463   11.92463989780555    5.28409728887575
C        16.06920368921948   10.06727356637172    6.47192161024154
C        15.53616960489818    8.70617109179195    6.13519333176301
H        15.67482905302818    8.03733210815527    6.98766671961030
H        16.05744701611723    8.27920105269068    5.28003537717404
H        14.47468333755692    8.74272754042891    5.90117362332961
C        15.32506181777629   11.12878430580149    7.11846928308804
C        13.91168862313814   11.03294692535597    7.61702297812525
H        13.92778590310799   10.83179392148770    8.69071411462817
H        13.37416962819069   10.22063238879762    7.13392957820727
H        13.36345853603851   11.96104521753087    7.45923809121496
C        16.25369713465917   12.11821479767639    7.53025747380311
C        15.96472686638873   13.32964444949372    8.35802116004877
H        16.48585856744900   13.25167308911328    9.31387032653080
H        14.89869402302277   13.43169153865497    8.54533876513637
H        16.31317562328869   14.23290250301704    7.85562978129952
C        17.56731301334468   11.70911062453246    7.12647298632476
C        18.82387385175885   12.36008657259360    7.62263316443899
H        18.92107874491112   12.19249213274744    8.69791628009918
H        18.79459895167752   13.43577058831639    7.45311922995695
H        19.70464327076630   11.95006908393714    7.13383370845522
C        17.45365781045426   10.41040578809862    6.52442005441866
C        18.59299079368683    9.47706510802376    6.24855804514836
H        18.89519575224415    9.00070997396336    7.18402606043158
H        19.45842530833394   10.00097176861930    5.84501145254987
H        18.30373817657069    8.69281479675104    5.55191881958655
C        17.73470362690041   13.37677380757462    2.29130257249837
H        16.67689586780461   13.39218078257889    2.02089664821458
H        18.00124779889036   14.37989802260644    2.65151004466367
C        17.97699603714778   12.58056518944943   -0.03182047494426
C        16.75780622888276   13.09901943692809   -0.47424363210357
H        16.23788388913989   13.85945873742576    0.08985716894080
C        16.20494580490772   12.66437719128537   -1.66434775575702
H        15.25689031800914   13.07388681561200   -1.97824586674635
C        16.85427446406411   11.72666176151635   -2.44809722289661
H        16.41072285291987   11.38662749141841   -3.37094780698170
C        18.08214241398139   11.23547736111101   -2.03645477455478
H        18.60969483854879   10.51186998027070   -2.64051386703848
C        18.63341979452135   11.65105065737984   -0.84121951009641
H        19.58427706273971   11.24652843378534   -0.51493037365672
C        18.57879787192991   10.71670920812917    2.74769496664213
H        18.62870266162560    9.88650510736781    3.46221302613130
H        17.83731403880464   10.45382482302386    1.97715979247852
C        20.76223330071420    9.92515527054391    1.92943793329158
C        20.35465337522358    8.59409610943216    1.86555075140224
H        19.31686272030294    8.32994707123652    2.00253244594633
C        21.27845897301919    7.59850812790587    1.60161979113969
H        20.94752365532040    6.57104411659361    1.55467267020271
C        22.60985784120926    7.90653680283392    1.38738861146468
H        23.32324044940476    7.12403393137862    1.17903848200108
C        23.01929404324100    9.23009137045083    1.44168543854629
H        24.05603076177717    9.48420625920511    1.27789566012141
C        22.10837905316888   10.22742100822338    1.71844087716429
H        22.42244369374887   11.26243299385061    1.78194549453228
C        19.61959424423651   12.86876901986038    4.18502047599782
H        19.41009215575873   13.70307706467426    4.86801188274107
H        20.19132053947117   12.09738143789799    4.72338223045504
C        21.20642625664268   14.42745964274471    3.12970956396545
C        21.52743648985621   15.15483411768372    1.98438579652705
H        21.05025236958159   14.88669503969369    1.04929050730798
C        22.42200231499564   16.20318736359129    2.04328631583471
H        22.66039751096370   16.75307958584699    1.14493931456239
C        22.99818872263331   16.56062844449863    3.25202021909637
H        23.69049811730394   17.38702056987002    3.30192366961535
C        22.67439040458552   15.85152925816431    4.39492887307753
H        23.11887405039436   16.12140430818491    5.34183838478096
C        21.79127014981225   14.78801752202556    4.34135828079136
H        21.57202789681857   14.23664599467392    5.24292798503498
C        14.97631051657723   10.96292653194897    2.15495491962684
H        15.67910264458278   11.55882618457767    1.55078354620091
H        15.47023252691355   10.01155345764417    2.41068508951077
C        13.78358385787495    9.86011103993940    0.32985434611041
C        14.96978712714816    9.49323958764235   -0.30111856602140
H        15.92253756141475    9.85996836270049    0.04795799110250
C        14.93831639803806    8.67098867098311   -1.41366733350787
H        15.86817738885016    8.40433648228412   -1.89430319310362
C        13.73754576055638    8.20290986679841   -1.91470620666150
H        13.72109974729786    7.56401194976375   -2.78441257176108
C        12.55387536362174    8.56131305633189   -1.28792254715143
H        11.60896211014779    8.19891106201206   -1.66504621386628
C        12.57684017623372    9.37401215672636   -0.17417675047062
H        11.65791100750714    9.64656070093248    0.33003202043496
C        13.98921993464084   13.41891692991140    3.13974109955671
H        13.31531269381905   13.80832880769788    3.92122566643379
H        14.81978325039448   14.12859839290110    3.04816671816070
C        13.36931553340754   14.20784074568341    0.88405276706910
C        13.05866575219159   13.85170135553560   -0.42923352436464
H        12.82160101739859   12.81648745120292   -0.64742373831668
C        13.06471894072209   14.79402530179494   -1.43691220569314
H        12.81406392110676   14.49850269322253   -2.44551985495179
C        13.40581431137631   16.10852154600619   -1.16109751070292
H        13.42269359502873   16.84403292708985   -1.95061298004778
C        13.72461098987435   16.46732853410976    0.13667538491808
H        13.98793431520413   17.48971545290651    0.36495173111683
C        13.70082629143226   15.53436026278272    1.15781774688892
H        13.92952037910133   15.84904804624682    2.16429296769890
C        13.08758742876958   11.01605902883126    4.16463662539783
H        13.23690552270492    9.92497830360857    4.16067699010258
H        12.81076174529441   11.33227614626179    5.17732656156234
C        10.73655331440865   11.50457805249775    3.66169198074120
C         9.84559415156687   12.32768448354221    2.97283490182705
H        10.21696630326031   12.91702619626157    2.14336220925868
C         8.52069040558224   12.40393136867098    3.34869856631399
H         7.84689587183360   13.04559965104198    2.80061690917550
C         8.05959937587178   11.67610901489365    4.43438325111122
H         7.02562568504376   11.74310414582367    4.73599426406565
C         8.93850203085043   10.86478074067757    5.12916913006010
H         8.58960831025855   10.28952640201658    5.97454962862731
C        10.26512196047266   10.77037888797140    4.74852215973766
H        10.92330385329536   10.10880301795146    5.29128531920377
P        17.97098658294934   12.19074198095426    3.69966423194065
P        20.18537813026627   12.53148683262181    1.53268233444400
P        14.69867813945502   11.82866596546100    3.76805580566072
P        12.43482633301938   11.78707524245388    1.61067412302453
Cl       16.48458150837466   14.31023158580176    5.07714908981991
N        18.55388034644611   12.95555849104597    1.17891841783802
N        19.88992651546264   10.97183882135978    2.20699481231307
N        20.31508035608017   13.36192272734383    3.01497703367944
N        13.74423648186042   10.68555059255061    1.45605754826114
N        13.33723329111619   13.22319379557779    1.86628954618060
N        12.06395749521888   11.44893289712032    3.24221586655187

