65
CSD_code = TISGUX | q = 0 | S = 0 | Stoichiometry = C29H31ClN3Rh | MND = 8
Rh        2.36762424192488   14.64856198853932   11.39385144293509
Cl        0.12306930684131   14.99175105061118   10.93547119853200
C         4.38869671432767   13.84767510213834   11.24710354116510
C         5.50715855355150   13.81957363538935   12.23945939579906
C         3.45410005822642   12.77061340047703   11.02597810204031
C         3.44974261413453   11.48743958182638   11.79664771630815
C         2.67181259311220   13.09633994654251    9.88869935462022
C         1.66074263034891   12.24120476346783    9.19235086680567
C         3.12647328612066   14.37525810019144    9.38426542428707
C         2.67675122993491   14.96616132234476    8.08408512944600
C         4.21829000293899   14.80452552920991   10.19612833334971
C         5.09568103255845   15.99070032076262    9.95323445412163
C         1.72381102048268   15.93568060192955   13.44455048684804
N         1.08968178717299   16.63048131685669   14.43305881538187
C         0.38656880122414   17.83596921255330   14.22423535743422
C        -0.22742669397207   18.11795461900295   13.00909295981056
C        -0.87019268674744   19.32885551893972   12.83332419776749
C        -0.92405585151342   20.25178762209389   13.86404688676973
C        -0.34552281146784   19.95311169086605   15.08606012509685
C         0.30922455402145   18.74973658745629   15.26925534261518
N         2.28482179169347   16.44378206299018   12.35689372567005
C         2.47197211165617   17.76358985059145   12.00246649602065
C         2.27346449552944   18.13877981834370   10.67237595852488
C         2.48749030728744   19.44282775881628   10.27655866954779
C         2.90986140342847   20.39106284868090   11.19475196281894
C         3.12718732554434   20.02021104198855   12.51150836230195
C         2.92113274703271   18.71739720759109   12.91896505589684
N         1.84372952643553   14.61260670887078   13.39874639428980
C         1.32669521854773   13.68229998069131   14.27833589049260
C         1.50203170146522   13.78702537904389   15.66155622167793
C         1.00979336757438   12.80226385816471   16.49836694681490
C         0.35158203590025   11.70047463256715   15.98006733544153
C         0.19465217765741   11.58009946791675   14.60720509850920
C         0.67900429586523   12.55637547543054   13.76267072415795
H         5.82312890427148   14.82640845161792   12.50232994846270
H         6.36330800379364   13.29283263612419   11.81265419866144
H         5.20678383271171   13.30177939345413   13.14750867756053
H         4.34323596806359   10.91353851265878   11.54437698377281
H         2.57559559195161   10.88700254066070   11.55976711902736
H         3.45523255460080   11.67153821853268   12.86976614945537
H         0.73684944739833   12.79514014561778    9.03132223654027
H         1.43053557259111   11.34961893139237    9.76976210289275
H         2.04974589408902   11.93733301184040    8.21929853124466
H         3.04825184966309   15.98048113110625    7.96218857437361
H         1.58977608103426   14.98223270421971    8.02612751497249
H         3.05203523125791   14.35877556819989    7.25821329207961
H         5.95998939241027   15.68344600618934    9.36129933184284
H         5.45492855221667   16.41149922555356   10.88970168430040
H         4.56696559189779   16.77170452971967    9.41257457784804
H         0.77983176582878   16.07060577910513   15.21609237773811
H        -0.21448237540622   17.38598082158749   12.21587440376716
H        -1.33932827093853   19.54587039335799   11.88579215015117
H        -1.42514374652237   21.19724531992618   13.72026992496322
H        -0.39843197383382   20.66219113189974   15.89919310142249
H         0.76804999937597   18.51365385959186   16.21874865198542
H         1.92313874993550   17.38846243160100    9.97535054495910
H         2.31832258157349   19.72609721409659    9.24746933440901
H         3.07199959357170   21.41274578976096   10.88558656618427
H         3.46442670301454   20.75334328738177   13.22995687557258
H         3.10472298240381   18.42879224777670   13.94308128849124
H         2.05796412654880   14.61807666809325   16.07432560971913
H         1.15014315796053   12.89542454026306   17.56597541174384
H        -0.02944033553916   10.93645197504509   16.64074372853091
H        -0.31294757789159   10.71945602884413   14.19661000400433
H         0.55526326307125   12.48599350191538   12.68977113003392

