95
CSD_code = TISGUA | q = 0 | S = 0 | Stoichiometry = C41H50ClOPTi | MND = 12
Ti        2.86928152214263    5.44306661671254    3.74527801317511
Cl        3.15742562267940    7.61388024161629    3.30490073530974
P         6.06360910740428    8.74187010902714    3.10925625370326
O         4.46885344493533    4.84370565165487    3.82654106932655
C         3.06665821123231    5.34522778783266    6.07253974074443
C         2.43410971370883    4.15213460152246    5.63390088966273
C         1.15637340749170    4.49572479121358    5.10564863528086
C         1.02891564729727    5.90612373043602    5.16837193468439
C         2.19811201851944    6.43185144542982    5.78105699229136
C         4.34015996158464    5.39320165703526    6.86246483826321
H         4.62966071673633    6.42109532475504    7.07186727940526
H         5.14852766787463    4.89521678599304    6.32338183276624
H         4.20541326348513    4.87688014989008    7.81585519218316
C         2.96512362184337    2.76969265067346    5.87142235212934
H         4.00517437856749    2.70238008661815    5.54773275233146
H         2.38022720046889    2.02411857294165    5.33587863060723
H         2.92881102671409    2.52829119135056    6.93665194726600
C         0.05721495464502    3.50028823005715    4.86128164922474
H         0.34585376970169    2.71682753410602    4.16033091580936
H        -0.84199874957225    3.98429085368424    4.48640192841180
H        -0.19896892128000    3.01734874009701    5.80747756689797
C        -0.15750597010192    6.73541908824180    4.76875427033554
H        -0.88621217127641    6.14866033295328    4.21245802437008
H         0.15574336063713    7.57438519372634    4.14306057927728
H        -0.65392255394707    7.14161774969817    5.65269117611262
C         2.37429783951281    7.84205603938965    6.26080544283247
H         1.72159630217324    8.52168125682458    5.71835094423670
H         3.39853619300247    8.18944721795133    6.12906838808670
H         2.12518942248455    7.89884161314010    7.32394223334370
C         3.44341534433184    4.41186440523200    1.60797806666656
C         3.00026735467084    5.60208486315546    1.01191874757303
H         3.57328255195278    6.26325422092950    0.37982646680564
C         1.64456902445164    5.79615823063899    1.32777804299817
H         1.02970263376825    6.60854176045240    0.96928894114561
C         1.22532650267919    4.74021069237977    2.13833144875017
H         0.19636026042352    4.52128471660416    2.38648513417469
C         2.33782710912885    3.86846408928148    2.33414229491289
H         2.27749991585710    2.86638260226589    2.74050018931514
C         4.87013892888256    3.88223641156703    1.63615005160863
C         4.84174625547048    2.33513308239095    1.76338406907467
H         4.40940673736827    2.06479894226513    2.73449395373622
C         6.20722839477637    1.64978125759869    1.62216706447906
H         6.88463296118698    1.89372004389291    2.43296903030341
H         6.04675815557413    0.56802414073711    1.65673204066489
C         6.84898426186528    2.02051775357435    0.28943172846655
H         7.85188207756240    1.58150855521228    0.23063875825081
C         6.95071870012513    3.54043827142866    0.18500287550681
H         7.39449512686933    3.81162690834273   -0.77653676952890
H         7.60757270501982    3.92561100215238    0.96529610594647
C         5.56175118889264    4.17418119201157    0.28190186288683
H         5.65742709968088    5.25071030590390    0.13023181447443
C         3.97487133707822    1.75781472752859    0.63102966348708
H         3.90884167100988    0.67275383516652    0.74781643325568
H         2.96289206808824    2.15967373588137    0.66182258567853
C         5.98453486080172    1.47670293358064   -0.84395064204374
H         6.42418210544303    1.72847042297511   -1.81176143127282
H         5.92377813915155    0.38777696920127   -0.77717849509021
C         4.70791681978884    3.60827000950322   -0.86069301851799
H         3.71404487745097    4.05576096902088   -0.84952817427697
H         5.17895773509340    3.85857766145712   -1.81460463472350
C         4.59396057535804    2.09330581367837   -0.72559981615030
H         3.95024499078812    1.70219884827488   -1.52192114928752
C         5.49538024005887    4.65787860828322    2.90563387350111
C         6.62321838979408    3.95180270045218    3.67887580790121
H         6.27433753645835    3.00148920853439    4.07447838265407
H         6.88487505964746    4.58297287007629    4.52701265680411
H         7.51352437715693    3.81041193849985    3.07635527859785
C         6.00539105471138    6.05932845394638    2.47833181439883
H         6.91492703448607    5.96874371037947    1.88369779960639
H         5.22647055531250    6.52904537501404    1.87161565225778
C         6.25637305027481    6.97595226641485    3.67721546832623
H         7.24810451467266    6.82489089176753    4.11310332873273
H         5.48104729853329    6.78393119363856    4.42755277471449
C         7.69910877099144    8.83910341081449    2.25994636414269
C         8.91381935220885    8.85478208479812    2.93574153488473
H         8.92816625275967    8.85177778462078    4.01716452369433
C        10.10282955040754    8.88692313157467    2.23117511822658
H        11.04309419196213    8.90320336573739    2.76424015204106
C        10.09334267696339    8.89868749566156    0.84554796099448
H        11.02497178726589    8.92372953834385    0.29896303606657
C         8.88830912114035    8.88140220775864    0.16459012368569
H         8.87711178068560    8.89146434132773   -0.91608203053915
C         7.69859127418863    8.85493359728880    0.87052902561757
H         6.75237059051136    8.84906813036494    0.34645886170358
C         6.51140484143695    9.64528096483777    4.63909463774803
C         6.32171802593026    9.14560928914130    5.92164246057088
H         5.96390249528750    8.13634897842868    6.06211211538148
C         6.59548707623722    9.93049945842169    7.02856402044080
H         6.45050281195222    9.52723179151118    8.02102701731469
C         7.05409142874695   11.22640576268074    6.87017489473810
H         7.26918666110168   11.83565964185690    7.73590770023105
C         7.23036052721882   11.74061061700906    5.59512720221030
H         7.58080508558696   12.75446539241124    5.46499081452092
C         6.95191922460673   10.95956782123148    4.49116018151315
H         7.08167888247678   11.35963335832828    3.49433599994071

