80
CSD_code = TISGEI | q = 1 | S = 0 | Stoichiometry = C36H40AsNPPd(1+) | MND = 4
Pd        5.43488397298720    3.90139373837113   14.86749412641618
P         3.56963459222595    4.44598694612988   13.76381688393641
As        4.95634116300334    5.90849100050893   16.18743264943249
N         7.20320074854706    3.34696173019813   15.85183981542241
C         5.76313152956686    2.25595189429893   13.79719736757768
C         5.38979982015969    1.91275266161984   12.50982438031650
H         4.73779644076965    2.55806105167988   11.92828009291726
C         5.84685021408468    0.72641058983346   11.95156313631734
H         5.54870368158233    0.45981460577342   10.94902778019560
C         6.68024414103085   -0.11017214614062   12.67275256448212
H         7.03001255358605   -1.03255475567596   12.23597784434289
C         7.07826752176074    0.23999659602814   13.95200777986521
H         7.74282810477033   -0.40221447738478   14.51175280316244
C         6.62446552169685    1.42497552305590   14.51272298542666
C         7.01223302594746    1.87907963649751   15.90151351008759
H         7.94033657408008    1.38709198796663   16.23401425901469
C         5.87209615314433    1.51632240804368   16.86417758168130
H         5.00649314731291    2.17985048139248   16.68327632370543
H         6.17494361334605    1.59290157258534   17.90547653802848
H         5.56151573815846    0.49049625881429   16.67738963653830
C         7.46888122733084    3.90671263151523   17.17716017988510
H         8.30671672871508    3.38890140634109   17.65875245565701
H         6.58330131617074    3.83213551709328   17.81740848191433
H         7.72325841467815    4.96998223831187   17.08243884050638
C         8.31036165629388    3.71479965122910   14.96362919185050
H         8.31078152627309    4.80222311256093   14.82162791543319
H         8.20613238282534    3.22469547756216   13.99249921995683
H         9.27500150617564    3.41966230233814   15.39578703770073
C         5.79426245278870    7.38277847087250   17.15940091851346
C         5.94361831340735    7.34420613104966   18.54200528738505
H         5.58789523400109    6.47712705073471   19.09224641091918
C         6.52785088296080    8.40846419253572   19.20675791002542
H         6.63240560698848    8.38232341526823   20.28107205135047
C         6.97755075235036    9.50798561234492   18.49368893308520
H         7.43003355705305   10.33804260634236   19.01384288762839
C         6.85238517610348    9.54263636499088   17.11423174362116
H         7.20913121069830   10.39827227181024   16.56063562923268
C         6.26920619618115    8.47947820046794   16.44732364499349
H         6.16788905577154    8.49353513214130   15.36462585093355
C         3.33529800909200    5.54561521726025   17.28241106735982
H         3.44079289722039    4.99544893700782   18.22171484034286
C         2.71135907464260    6.91479373624501   17.43012535011556
C         2.03225001088595    7.27745293191351   18.70503793764971
H         1.61273723681669    8.27772843199278   18.66166749178761
H         2.74053148637149    7.23290114874177   19.53248819361708
H         1.22774083999801    6.57237626200973   18.91729322799734
C         2.77250376566265    7.59308627662602   16.28146314719091
C         2.18772513875965    8.91810664830920   15.93381766396089
H         1.43410898330222    8.80558516206427   15.15324097531780
H         2.96505429919705    9.58125264760939   15.55275362220905
H         1.72387981997967    9.38667629063137   16.79627842124092
C         3.48117807145340    6.79605217813857   15.21276509772854
H         3.71181813721476    7.37133743342696   14.31120377604288
C         2.47174872896795    4.78971370434565   16.25277973951901
H         1.42908870135684    4.75612064385083   16.57619162554883
H         2.82302338315689    3.74785644670835   16.15172602173751
C         2.62406776846260    5.54719669069477   14.91428244533255
H         1.65372403251416    5.81216011164663   14.47607393914057
C         2.37953274214613    3.17502614874703   13.26134361500325
C         2.43150836559770    1.97203160837689   13.96251726903142
H         3.20093564475029    1.82867647859408   14.71806852191420
C         1.53619872214874    0.96092419871717   13.67220520257819
H         1.57803855092711    0.02960694526476   14.21598002995212
C         0.59197432917187    1.14231216863270   12.67361292842939
H        -0.10531396735099    0.35225020899415   12.44163644714682
C         0.54973957702040    2.33077387843638   11.96287221701379
H        -0.17767603620745    2.46429962232924   11.17666216391353
C         1.43998237825874    3.35004101700388   12.25213777185239
H         1.41151558507494    4.26610793021728   11.68218119840509
C         4.02623406712832    5.52800187294392   12.38352916786353
C         3.13087542565709    6.34000065243596   11.69252205837798
H         2.07995507096652    6.33605827183978   11.94587180879265
C         3.59456971345388    7.17684682885815   10.69314224014292
H         2.89983726826220    7.80300563730904   10.15411275017228
C         4.94622205988530    7.21966744626225   10.38866589719340
H         5.29977860820130    7.87405935526012    9.60698079462543
C         5.84578749471277    6.43608821062268   11.09465700637301
H         6.89985709108991    6.48426804905505   10.86672868694841
C         5.38956529863098    5.59515576108891   12.09334475070232
H         6.09341017087492    4.97177772068514   12.66134024026440

