57
CSD_code = TISGAE | q = 0 | S = 0 | Stoichiometry = C26H26AsCl2PPd | MND = 4
Pd        9.85850717038045    1.42504768456418   17.81772207477693
As        8.94335761417841    0.25136853606699   19.59722328493766
P         7.74471963392120    2.02715541794483   17.31945273283507
Cl       11.87014748419428    0.85899410768514   18.71144116094078
Cl       10.75010803431761    2.60108859655401   16.11501785070724
C         9.58702684695314   -0.22277415280135   21.36668437277076
C        10.05373504146878   -1.50841239913082   21.62055928264364
H        10.03260746385031   -2.24601451164800   20.82189934157255
C        10.54624267289695   -1.83031277333917   22.87355464523765
H        10.90885478784688   -2.82823546159938   23.07265383863202
C        10.58260685692405   -0.86900749775060   23.87067500714515
H        10.97095942952117   -1.12076216959367   24.84633322889423
C        10.13501265628059    0.41758989640830   23.61705936196363
H        10.17703216906874    1.16644868018913   24.39462759232866
C         9.64390797843265    0.74392632539644   22.36496047777513
H         9.30393496110356    1.75294005372965   22.14408916533867
C         7.61504780633335   -1.17649363071022   19.15748090734352
H         7.97797058383129   -2.17271392075067   18.89050200703521
C         6.68703755656026   -1.14828495538673   20.34577001413786
C         6.12020874985403   -2.42757033819825   20.86225452575077
H         5.47478387109628   -2.26111609794821   21.71952722396554
H         6.92712772853955   -3.09790476472933   21.15788468858093
H         5.54199481162988   -2.92516947568585   20.08262940145656
C         5.48441616977208    0.59737214440750   21.77344253265094
H         4.69657674812983    1.20470854788931   21.32612700816771
H         6.02389829446052    1.22361336300725   22.48449742056408
H         5.02473812619423   -0.22478760623326   22.31378346271288
C         6.41882396681009    0.10673745460932   20.71937784861659
C         7.16152386690498    1.10342239212878   19.86841171805660
H         7.10937466215347    2.13323596360286   20.23833751655646
C         6.87485972625364   -0.48957683162657   17.99369989353086
H         5.92960104326040   -0.99936997585091   17.78891954206290
H         7.49278767791756   -0.53744972733650   17.08032707624635
C         6.65627702111140    0.98236926306236   18.41225612831156
H         5.60894537756768    1.29851377159911   18.33600948152914
C         6.92622338000928    2.12985478129472   15.70638467640126
C         5.75426587157008    1.46338080699785   15.36652758696544
H         5.25476210329404    0.82514151939522   16.08103112410158
C         5.22369666574112    1.61751644135506   14.09709713325587
H         4.31220532642429    1.10068725174262   13.83298996774207
C         5.85830070615060    2.42453437942236   13.16743989676761
H         5.43908203947553    2.53641729691958   12.17838704189684
C         7.03488863052136    3.07815614242590   13.50103765182722
H         7.53671016273351    3.69657913068568   12.77223364502848
C         7.57223251040282    2.93159365675969   14.76534537274644
H         8.50605865494179    3.40864104237532   15.03571553546493
C         7.52410300885084    3.69796293849062   18.00324711748707
C         6.35140131224009    4.42243050435450   17.81373235978572
H         5.55372219627431    4.00318891388566   17.21528101525344
C         6.22041839586737    5.67756239843782   18.37917512405262
H         5.31230881127420    6.24290262993216   18.22936458050169
C         7.25407512119683    6.21217091441520   19.13237777076543
H         7.14852296589087    7.19437153328721   19.56852271024366
C         8.42584422846794    5.49566613606377   19.31986369372118
H         9.23286649092749    5.91986122103217   19.89830144572833
C         8.56432447173798    4.23993494255122   18.75620047470618
H         9.50013235629698    3.67466950964909   18.87785225978236

