26
CSD_code = TISHEI | q = 0 | S = 0 | Stoichiometry = C9H13Cl3Ti | MND = 8
Ti        0.76472105743813    0.26425662580356    2.69366157224786
Cl        1.40656335535223    1.32061078327150    0.93545516228355
Cl        1.62780091616025    1.51376224189510    4.21315301126489
Cl       -1.22252469392944    1.10564137828050    2.76664080538488
C         1.52877579055463   -1.57396181308049    3.81289230003037
C         0.12118486241327   -1.69755044317258    3.74863913788449
C        -0.24258454652716   -1.81145657514001    2.38941667236513
C         0.93674738448791   -1.74656299943266    1.61181341246505
C         2.04591548066251   -1.60141546551919    2.48886565331628
C         3.51534862782049   -1.57458325083626    2.12656818193354
C         3.70203521747183   -1.53857675985270    0.60694610331166
C         4.16551797578748   -0.32266934677259    2.73512868839747
C         4.18218288564153   -2.83662427319480    2.69515357715694
H         2.11083584205886   -1.57996293620591    4.72626786365339
H        -0.54659906565741   -1.79927126231264    4.59574113545624
H        -1.23880603067578   -2.00943625234570    2.01346746584633
H         0.98214875598972   -1.90334587531399    0.54175818628987
H         3.20025508480786   -0.66933036643669    0.18301466944898
H         3.30790876425734   -2.44135184246079    0.14601512079659
H         4.76102151240026   -1.47349003620778    0.36872811210100
H         4.06062744966519   -0.30993532878670    3.81922690628286
H         3.70060993124901    0.57942404586107    2.32672666204470
H         5.22662385317540   -0.30308229404243    2.49564676284653
H         4.10889750224929   -2.85870294851391    3.77924413756368
H         5.23371292361950   -2.85956693405382    2.42027122350423
H         3.70137916352662   -3.72861807142993    2.30035747612329

