69
CSD_code = TISJEK | q = 0 | S = 0 | Stoichiometry = C28H28N6O6Zn | MND = 6
Zn        1.99727745317854    2.81957826138932    8.73028078695193
N         0.40828353871830    1.95592006071762    7.45865969930068
N         4.59552792221191    1.23010406140100    2.57505279221551
N         3.16526202462823    1.05184724710497    8.27255138814278
O         4.29381441563849    1.70246074383792    1.49002327437403
O         5.29302027023656    0.23492806404397    2.70824530345378
O         2.65092179496496    3.67995674866719    7.11166708433467
C        -0.30782230395569    2.73299747144093    6.65472777581075
C        -1.34329347120812    2.27040613392603    5.86493198756255
C        -1.65021508767111    0.91921486429259    5.91059748275772
C        -0.88097428474405    0.10027744949094    6.71517163881384
C         0.15066499986323    0.64903650643549    7.47388750399368
C         1.05958210691327   -0.22558103457619    8.27511999136916
C         2.48525433770964   -0.11857570338246    7.72139262252545
C         4.35686114908904    1.41426558864706    7.49573674929599
C         3.97240977583267    1.94877765518832    6.14412464170554
C         4.43819626742821    1.35553331659649    4.99744647613763
C         4.10683929845825    1.86354866694841    3.74024849025853
C         3.29418313301691    2.99574921499551    3.64070775279859
C         2.81813539997717    3.58969501716271    4.77663596416564
C         3.12374335285304    3.09149175243491    6.06915662412635
H         3.45977592923078    0.80253631722081    9.21333730108090
H        -0.02384330316563    3.77416100784398    6.62323804371817
H        -1.89316292937946    2.94888284216438    5.23296865781996
H        -2.45769834748426    0.51347883585197    5.32016886628617
H        -1.06934246475928   -0.96121266453415    6.75763530352027
H         0.71595277125253   -1.25845980053546    8.23078686727352
H         1.06120138712121    0.11250076093830    9.31226535043360
H         3.04435265042493   -1.03655080553321    7.95073556145265
H         2.44946076052345   -0.00897932715660    6.63332027221175
H         5.02691258596543    0.55061556773559    7.37558758218917
H         4.88864346861023    2.19393492342780    8.04984457365701
H         5.07899795592418    0.48616703827120    5.04438418544811
H         3.05409482615360    3.37877058353887    2.66045953480954
H         2.18886773363695    4.46498103342072    4.71361323969889
N         3.58625113561707    3.68306146187899   10.00213526050876
C         4.30202188305998    2.90594511565813   10.80632631733258
C         5.33759053128648    3.36839545026253   11.59608045753949
C         5.64499272255193    4.71946559413178   11.55006079858112
C         4.87606542388159    5.53846557683149   10.74525294180184
C         3.84426245983629    4.98986361155561    9.98665036477921
C         2.93549444363371    5.86457296855057    9.18536046391772
C         1.50982867781558    5.75782816046582    9.73918514335005
N         0.82957123241726    4.58748568370231    9.18814569663856
O         1.34346912326622    1.95921570336434   10.34874874442585
C         0.87075098310309    2.54764483388332   11.39132530571956
C         0.02228489675167    3.69051824137224   11.31652187182110
C        -0.36208531773500    4.22532721011275    9.96499759072996
H         0.53508772592355    4.83678737712261    8.24735623924131
H        -1.03183865353106    5.08918803689211   10.08530975067086
H        -0.89416534986971    3.44590467326704    9.41080162095017
C        -0.44353230459471    4.28355651965592   12.46330076397677
C        -0.11232684307986    3.77524143555255   13.72041755785677
N        -0.60096438449220    4.40852108726313   14.88570910860494
O        -0.29792314013580    3.93693718358284   15.97073718591878
O        -1.29970517590857    5.40284657631197   14.75270585600464
C         0.70019763947398    2.64294039848819   13.81978734969481
C         1.17619778219700    2.04913610740187   12.68376490501471
H         1.80533499315158    1.17374687961467   12.74664465510666
H         0.94029724769965    2.25978218362230   14.79997806414342
H        -1.08428205660882    5.15296523686241   12.41651401940666
H         0.95088804176639    6.67588676777083    9.50980583600817
H         1.54566712718187    5.64831079437902   10.82726187266010
H         3.27933263633755    6.89739273648014    9.22957192587774
H         2.93374045086876    5.52638415476750    8.14825529401299
H         5.06478132325173    6.59988425343056   10.70253919824468
H         6.45262417651032    5.12506690508253   12.14037841062753
H         5.88718887444643    2.68989639836482   12.22825235437056
H         4.01771657673152    1.86487628289910   10.83800570476694

