76
CSD_code = TISJEM | q = 0 | S = 0 | Stoichiometry = C21H42B9N2OTa | MND = 9
Ta       10.61275687459570    0.84508175735351   16.98467843673776
O        12.49582428582007   -1.04567489041292   17.95659327504916
C         9.42830589286522   -0.34211104014432   14.18306345656838
C         9.53432269921250    1.13590684991814   13.73958242071878
H         8.59678340696050    1.68758342909216   13.77779845903619
C         8.01597677879740   -0.80381596932771   14.54943893714844
H         7.31034477331899    0.02684750098803   14.43168642412413
H         7.68538012611916   -1.57673765510672   13.84778887975510
C         7.83993038070362   -1.41412260657145   15.94560334757519
H         6.75722510466316   -1.50287504579452   16.15226167014142
H         8.25554494281062   -2.42874921118804   15.94189876997546
C         8.25416031241318   -1.32671152908671   18.30351953911586
H         7.18556642758940   -1.30776028976211   18.56849481656959
H         8.81793573400118   -0.81572218204824   19.08701756085504
H         8.57611592292076   -2.36944000838186   18.26638670982367
C         8.35212756585891    0.75025653997021   17.05485731757190
H         7.77442326499889    1.07574639076738   17.93126454497545
H         7.82484310550837    1.11544008268134   16.17236947029575
C        11.76399956742895    2.96646185870630   18.98849403734772
C        11.02200259629201    3.19486553257701   20.17624134077564
C        11.50343339965403    4.06390376439108   21.13477555115824
H        10.92840443029136    4.23250480645489   22.03464913195382
C        12.71054037537835    4.72188744163365   20.95789676822695
H        13.07559729818562    5.39963767646541   21.71484435614650
C        13.44381445700258    4.50396543588950   19.80457590392074
H        14.38576633356373    5.01577834830630   19.66476653557418
C        12.99608437829761    3.64226799965436   18.81860935080800
C        13.79973953256912    3.43518261486724   17.57005530021653
H        13.53453033353317    2.48861328077357   17.10311676978702
H        14.86461495314663    3.45151856118541   17.79252067049654
H        13.59246518808976    4.23351372876949   16.85797234381994
C         9.72100202839093    2.47218263525138   20.34999616967062
H         9.24821530793620    2.74596243914397   21.28952790715136
H         9.89042520302272    1.39311877041087   20.33028884774297
H         9.05425963974605    2.71535494647658   19.52112685129154
C        11.03155810256443    3.41344131610336   14.52063844623322
H        11.74616635083941    3.48121115310469   15.35140363581708
C         9.71768368209842    4.02164402403027   15.03295186610477
H         9.86987171084582    5.05724742684982   15.33448239541764
H         9.34414337905562    3.47335375010845   15.90147515908295
H         8.95959592666263    4.01514257731320   14.25106508623380
C        11.57991263244581    4.32250530316593   13.40948064336511
H        11.73613236607475    5.33490109411788   13.78120020281406
H        10.88379610716593    4.37357150894250   12.57591829987120
H        12.52613432150244    3.94171138927842   13.03668315489355
C        12.88360467191159   -2.37676387516550   17.60225145001827
H        12.04204370007876   -3.03378580163264   17.84166938031878
H        13.07549567646316   -2.42750420580419   16.52521252917044
C        14.13694554553274   -2.72284142358232   18.42141412556428
H        15.02088920741758   -2.70247042483584   17.78482523614353
H        14.06354385644321   -3.70633886939525   18.87978877972744
C        14.20107500345482   -1.59469226778026   19.45293647483687
H        15.21392238994717   -1.37341083359728   19.77805417835008
H        13.59018632261186   -1.83369728866631   20.32355336281017
C        13.57162181992109   -0.44586303856369   18.67424651447068
H        13.15074107517316    0.34947394545287   19.29078147314660
H        14.29513672336342   -0.01534813927489   17.96882075441623
N         8.50787557508825   -0.69299399624060   17.02300281629120
N        11.29668720681278    2.10327983839107   18.07817534871714
B        10.91484792145423    1.85397902032025   14.06118225734987
B        11.92382416024073    0.43152046180793   14.87752872664490
H        12.94049315451667    0.55542487800631   15.49054958386517
B        10.75925309165241   -0.93795224809050   14.84946790625597
H        10.68926220350783   -1.82745279473311   15.64111861008892
B         9.56342574098872   -0.02794819292792   12.45701387701070
H         8.58909431447411   -0.15576717203806   11.80693026860131
B        10.60400608382856    1.35150216515775   12.36383772518731
H        10.39115250889382    2.19405196481726   11.57364837765503
B        12.12500858156732    0.96341599370345   13.20003862216205
H        13.16935446725638    1.42797671529474   12.90774854280589
B        12.00559465725626   -0.84525322513192   13.62829353392982
H        12.97071582512230   -1.52781451737494   13.65279040806873
B        10.42443861625588   -1.37911756784543   13.14737449319781
H        10.06254166177698   -2.47590198419382   12.90854188285777
B        11.29595862735509   -0.23143882046425   12.11548132602816
H        11.73360240877631   -0.54545980243755   11.06856067238353

