74
CSD_code = TISQIY | q = 0 | S = 0 | Stoichiometry = C27H42IrNO2S | MND = 9
Ir        6.44906686123523    3.20530420022419   17.95069759867404
C         4.93363448946761    4.69265249566048   17.72948742151423
H         3.94673219353234    4.25116993659415   17.81231353818940
H         5.02320840886227    5.65005733341473   18.23017306939814
C         5.63879578084533    4.52215154825247   16.49725788550801
H         6.30858645047244    5.28935635205748   16.11564237916556
C         5.55869661912821    3.26084452524639   15.88971977568447
H         4.63774943774927    2.69573435445017   16.00097722038813
C         6.36422608128890    2.89028394843570   14.68356818884144
H         7.20576479312087    3.57493623489042   14.55924593329093
H         6.75984402116776    1.88514823663033   14.83863095108973
C         5.50415689507208    2.89599430942831   13.41451075092874
H         5.13368308398223    3.90797899294303   13.23368579460442
H         4.63856205399846    2.24835157322826   13.56789406269502
C         6.29006331607622    2.41416541550281   12.19786758908258
H         7.15459153168872    3.06427014718181   12.04271958253979
H         6.66600769880706    1.40681991961115   12.38958194691498
C         5.43755655812303    2.40210868915434   10.93125182897359
H         5.05199912449407    3.40759380063824   10.74563567717752
H         4.57872513842179    1.74368173115117   11.08110768288133
C         6.22870036636274    1.93280066437299    9.71265710616216
H         7.08899303676996    2.59046268134020    9.56645728950640
H         6.61147241385380    0.92618549001092    9.89653145996779
C         5.38217790274362    1.92490754655172    8.44210404118947
H         4.99540802168113    2.93044302646559    8.26062613566268
H         4.52514954084585    1.26244800905179    8.58377384943940
C         6.18299435647342    1.46456917359593    7.23022329750923
H         7.03103071039431    2.12465124734899    7.06066438317772
H         5.56299775671988    1.46632252704321    6.33669779257322
H         6.56117261086428    0.45615437194035    7.38375056247381
N         4.89033991526315    1.83986150201806   18.29669653889652
H         4.56746763900100    1.69730760741270   19.24156256927015
S         5.25335690425241    0.40939134037416   17.65402447053504
O         5.25873981599541   -0.62971005328075   18.66281767247892
O         6.42837909362626    0.52592480738766   16.81550045071508
C         3.86972643924746    0.08312287358117   16.55528082680438
C         4.08444600928910   -0.10791334722443   15.20424921708930
H         5.09774069245371   -0.08300744598626   14.83680063453868
C         3.00915352737209   -0.32691946106952   14.36235196772951
H         3.17277396142514   -0.47708212325201   13.30443887033169
C         1.71158163936945   -0.36029312616064   14.86427336042601
C         1.51525592274913   -0.17302746183627   16.22750768714492
H         0.51298886174769   -0.20174024826912   16.63050499479310
C         2.58998995961459    0.04902245309446   17.07172887207039
H         2.44881031242220    0.19232594937172   18.13124645663690
C         0.55561230037157   -0.60476157503002   13.94189708428686
H         0.62120847118603   -1.60431498364381   13.51348810807008
H         0.56579517184282    0.10964302652360   13.12016902857958
H        -0.39033939317478   -0.51702385660654   14.46956301522400
C         7.95514068983810    4.21548782892004   19.28802354018183
C         7.62688674852319    2.93584434072483   19.80938060733114
C         8.15364763757309    1.93357090886309   18.89745990509966
C         8.71315788793029    2.59385532187412   17.79673765624142
C         8.51623289322712    4.01066155520693   17.98136720023220
C         7.83542017509574    5.52304876072963   20.00592503214427
H         7.02065413897789    5.49863306004271   20.72494466019127
H         7.66064270933840    6.34309898695835   19.31343092113188
H         8.76061241878331    5.72947109615786   20.54717017594924
C         7.15161454530030    2.63165364993583   21.19633663706421
H         8.00256619778926    2.57512493886700   21.87838339707140
H         6.63535000909632    1.67462469463874   21.21766372265981
H         6.47489195398305    3.40212447055796   21.55940913480644
C         8.27088226829721    0.48218709437640   19.22398466188350
H         8.79138710841561   -0.04328131867944   18.42897877341868
H         7.29486310969021    0.01416953631058   19.34090190694364
H         8.82409366001654    0.36049607123980   20.15741176124612
C         9.39465499306772    1.92844034958278   16.64792081416156
H        10.35158533384494    1.50981033972477   16.96321699691549
H         9.57709526555553    2.62839185510155   15.83693641438760
H         8.76665765562776    1.11866429082539   16.28017183337550
C         9.16376036096115    5.07802846597699   17.15143140061737
H         8.67103602149271    6.03818916767418   17.28906741690731
H         9.13897011797365    4.82493062614315   16.09357664372017
H        10.20892160109286    5.19041954831635   17.44571216555201

