75
CSD_code = TISVAS | q = 0 | S = 0 | Stoichiometry = C26H45OSi2Ta | MND = 9
Ta        2.95880999193860    8.50411427396677    3.29026700146257
Si        2.80134111018976    4.98842004391296    2.45079067069088
Si        1.60290493434119    9.74856304527382    0.26730795476500
O         1.78708761442205   10.00774900325369    3.68383443770733
C         4.69090775466702    9.27327221712145    5.60968187286334
C         5.58530599358357    8.25916180440373    5.82214297717860
C         6.37315863140824    8.07582373914167    4.62565782913282
C         5.95409569557629    8.96827649111086    3.67859689286223
C         4.82778462763075    9.72729027882164    4.22460716334708
C         3.76059861024097    9.90631982988633    6.60055208817173
C         5.77818485911181    7.43576035229314    7.05173657737350
C         7.44598173254901    7.04660574267162    4.49704592481540
C         6.53444580620071    9.17066437720048    2.30995076358566
C         4.65158113548962   11.18661559088595    3.87869335665849
C         0.65677587865736    9.99174922847711    4.37918798444069
C        -0.19998190191570   11.09475353579082    4.49569507375492
C        -1.38196214895666   10.93300456048623    5.20416798135168
C        -1.71854295500656    9.71939851512120    5.77804249298134
C        -0.86224480360982    8.63524848455336    5.66908383837121
C         0.33446256516441    8.76248351718207    4.98496996036866
C         0.15163055492379   12.39670544999944    3.84095712368406
C         1.36262202852655    7.70077552494409    4.81838963033751
C         3.69760324270375    6.36661362378524    3.40995276563957
C         3.70880232743641    4.65468413482867    0.79463706483245
C         2.80111396854767    3.34200458113998    3.43238105851246
C         0.96803787087109    5.40886308406896    2.06423045588828
C         2.85027928049991    8.52686003428769    1.00991803623289
C         1.56124169527120    9.59083323031042   -1.63931736412929
C         2.14086218297133   11.53468272080469    0.69523318205714
C        -0.14857812879760    9.35830290764886    0.92922606633283
H         3.50543001873077    9.21358145258395    7.40024728619340
H         2.83569094314940   10.23512850057421    6.12679167927718
H         4.23301375873796   10.77959420397678    7.05635312154342
H         5.03579966198681    7.67546841754154    7.80830840627529
H         6.76755043842952    7.61030291258064    7.47598516472847
H         5.70315274947011    6.37458616500373    6.81313027826855
H         7.02410467738652    6.04385933599498    4.58051407827011
H         8.18350026344568    7.16228675424298    5.29102659720650
H         7.95253747749043    7.13055639872739    3.53923275678929
H         6.64084848822760    8.22210503382739    1.78169031646621
H         7.52511138207191    9.62372589298488    2.38024574598293
H         5.90711081116808    9.82820691732050    1.71022523465045
H         3.73891372367912   11.58302655192254    4.32141681848622
H         4.61033055829193   11.34291765680954    2.79991994993772
H         5.49273220669826   11.76393509347855    4.26933466087028
H        -2.05245615568640   11.77499101406365    5.29986899337500
H        -2.64927385843043    9.61953620279564    6.31612745150841
H        -1.11902179262172    7.68911945028057    6.12343345837290
H        -0.44540276372908   13.20762956501064    4.25085880995805
H        -0.03162288239039   12.33563657310016    2.76803945080957
H         1.20675574189676   12.62383483845936    3.98529454382361
H         0.89952869288784    6.73850674615595    4.59480538375092
H         1.92421813712188    7.58799295163405    5.75366104826326
H         4.73759253275607    6.34669631780763    3.06564118795296
H         3.74504968568969    6.04232526593393    4.45337278258967
H         4.70253168279736    4.25488159319483    0.97062238492952
H         3.82186350780623    5.55768092157398    0.20336393335733
H         3.17014754698213    3.93159565181427    0.19026691287652
H         3.81145933090466    2.99583082128476    3.62576844016465
H         2.28531310295683    2.55781998606189    2.88719986763786
H         2.30576293436689    3.45514793971491    4.39165455662648
H         0.31124653471049    5.05795660060785    2.85386951506490
H         0.64708723019032    4.92316747874120    1.14751332495048
H         0.80554358399665    6.47743499348019    1.94989779218148
H         3.85287881822260    8.77369109620934    0.64692273978366
H         2.62471933199521    7.52903900940111    0.63432900266529
H         2.53002794637745    9.80331695378310   -2.07906701385632
H         0.84642363122019   10.28233640627442   -2.07267713446096
H         1.27531440276528    8.58999814631949   -1.94460154488411
H         3.08711029083325   11.78821756967598    0.22502206527774
H         2.25735340653319   11.65144466173182    1.76770580709237
H         1.40908163258992   12.26338407667431    0.35964621420691
H        -0.16389030246469    9.30774178981933    2.01439540757378
H        -0.50684342206013    8.40586736287537    0.55005788672703
H        -0.86433584165382   10.11619680461017    0.62496377554446

