74
CSD_code = TISVAT | q = 1 | S = 0 | Stoichiometry = C31H40P2Rh(1+) | MND = 6
Rh        1.30926930151557   16.06003664632732    0.12218829075500
P        -0.42226224129300   14.80615959792167   -0.67337440648432
P         0.67595008791613   15.22888160877418    2.14347025352796
C         3.39258971537038   16.61515866834014    0.43458979422014
H         3.96875508593508   16.00418267575364    1.11486985415191
C         2.59850657980252   17.69726929644077    0.74640038303266
H         2.41156693106105   18.11121633506218    1.72760200007042
C         2.45974315411088   18.50969646360408   -0.54080524970538
H         2.11611933236460   19.53418727101511   -0.43489730230497
C         1.60530497729145   17.58891631925731   -1.40722936140867
H         0.72192829934470   17.93758866427354   -1.92269330123071
C         2.38837096076825   16.49789129790428   -1.71473209266531
H         2.25143684774609   15.79785890935759   -2.52849722523315
C         3.74182596956006   16.74303257863068   -1.04636001866910
H         4.57634670969875   16.14660803559760   -1.40306433064966
C         3.84318898526898   18.27303688384339   -1.17199638333437
H         4.65963509973003   18.69785388124721   -0.58941494858378
H         3.90780043968160   18.61575421989778   -2.20392545395399
C         0.22860237209097   16.42641525994063    3.46713482853243
H         0.23896757309645   15.93021278076554    4.44404968899050
H         0.89988302020165   17.28453626888826    3.51302056678113
C        -1.17892773605164   16.80604433204473    3.10231347951097
C        -1.79627034470931   17.98727131572944    3.47188646655649
H        -1.24718713211445   18.73611836159921    4.02262822409935
C        -3.12518749356314   18.19740079891357    3.13924625732084
H        -3.61087120350782   19.11813314063377    3.42126063087343
C        -3.83341306265952   17.22008593821611    2.46282380234889
H        -4.87461772991255   17.37453191024987    2.22594623313192
C        -3.21425256442947   16.03737640726815    2.08722501064302
H        -3.79368892444849   15.27642529831183    1.58410086177231
C        -1.87650877572421   15.83473707059806    2.38343045694332
C        -1.07555845792755   14.59403932837429    2.05290548957021
H        -1.24424905207537   13.85565863060688    2.84603064151559
C        -1.39049547950261   13.97130771020265    0.69231947936820
H        -2.46209037548851   14.07350412827947    0.50013646836954
C        -1.02934796189448   12.51020723399568    0.60260168435095
C        -1.48829947654057   11.55096574306027    1.49329916499832
H        -2.15122412359788   11.82865133261576    2.30033738339433
C        -1.10939625846852   10.22800444206474    1.33796672130270
H        -1.46515462499092    9.48444431268880    2.03378500058726
C        -0.28123710815795    9.85793235525859    0.29110904658217
H         0.01291662674567    8.82697570624127    0.17422975434204
C         0.16222413136287   10.80770922778532   -0.61343318438234
H         0.79804652229813   10.52104535095806   -1.43750453878959
C        -0.21441680671046   12.13274431409525   -0.45860410603596
C         0.20566627803587   13.22488251234035   -1.40017891376541
H        -0.20460102843671   13.05690621909359   -2.39894155803739
H         1.29594568624601   13.26346108864789   -1.49550134121342
C         1.78730912283382   13.93034799724066    2.91870098618416
C         2.87116967417086   14.68317521648309    3.69555478063961
H         2.47644091957771   15.08787872198452    4.62467098683273
H         3.27745840737347   15.50723326618152    3.11149612899939
H         3.68663723828178   14.00766020680034    3.94654162507314
C         1.04484910724030   12.98282073043267    3.85485236411939
H         1.76761710625781   12.35982111257911    4.37859126483351
H         0.37827998538143   12.32293269503934    3.30335506094516
H         0.47189140491441   13.52618415394601    4.60492715571637
C         2.40086431937676   13.14893392341354    1.75453324396406
H         3.20452897094719   12.50543464503104    2.10643744014511
H         2.80654456612923   13.83140342321567    0.99968389704163
H         1.64830464661658   12.52161515124855    1.28042306213908
C        -1.71289801780829   15.44956056438839   -1.87840098559277
C        -2.21109191803235   16.77090483096870   -1.29088212959906
H        -2.89879789597976   17.25912894580505   -1.97814841645225
H        -1.37759457425875   17.44683862805631   -1.09467424053151
H        -2.72964514348553   16.60723734183440   -0.34763488435903
C        -1.03045037538025   15.68863398654212   -3.22718344516899
H        -1.69539968048439   16.25052982957558   -3.88047699613816
H        -0.79684267248387   14.74914628309720   -3.72369079617218
H        -0.10994986436792   16.25574465743403   -3.11416875190484
C        -2.87242673853666   14.47168999203024   -2.06907715919450
H        -3.56813241597049   14.49885443246305   -1.23455156978997
H        -2.52301234198340   13.44821841321695   -2.19716968187754
H        -3.43018655536105   14.74851297826536   -2.96166314105143

