37
CSD_code = TISVUN | q = 0 | S = 0 | Stoichiometry = C13H18Cl3N2Rh | MND = 6
Rh       10.61784595649913    6.42071059935484    8.65926630447953
Cl       10.42224586148427    8.32269203942438    9.87766988328272
Cl        4.98814901547264    7.25412191401168    8.54461487789288
Cl        6.44484829143754    9.15980560884459    5.91438412780330
N         7.62938557995702    6.66685106945346    8.63478541662766
N         8.51407094177105    7.82536922798936    7.04040719646635
C         8.80063022458664    6.94541571854100    8.02349901930462
C         6.60932527301856    7.36623758935491    8.03695336778462
C         7.16747565291429    8.09701403593795    7.03089429142774
C         7.49240497757636    5.83079442432057    9.79654932966439
H         6.97598764412264    6.37484109783626   10.58725422971020
H         8.50252979272707    5.57341551761590   10.13347963261936
H         6.93212003920368    4.92525128018341    9.55733653348985
C         9.49285381216352    8.45327077815550    6.19464671459685
C        10.57232069611334    4.38149043730299    8.04879476200562
C        11.04392205261453    5.17925096978844    7.00359583212176
C        12.49704932867825    5.29782206852654    6.60176676802082
C        13.44302951139268    5.54583807474246    7.79238350027843
C        12.76541021997743    6.30076257366009    8.91506375529904
C        12.14386597981733    5.68282575109305    9.98066257061821
C        11.99212825845859    4.18752444405636   10.14509257891856
C        11.46949162386432    3.48460280127083    8.87687850190006
H        10.48012476955875    8.20484237157831    6.59809888593380
H         9.40379033398109    8.09587703180385    5.16709906915873
H         9.35824633258362    9.53458635989352    6.21202904196154
H         9.54042122951038    4.03876885029138    7.97737962526725
H        10.35771196112182    5.37353030364218    6.17836237551787
H        12.58536738129582    6.13098098834817    5.89937731399061
H        12.80007519392515    4.39180330258971    6.06477023933098
H        14.30275933581497    6.12163119056688    7.44404590086327
H        13.82428108928774    4.60020776699044    8.17981039841124
H        13.10302353476953    7.32829969048203    9.05262217206346
H        12.05148757123984    6.24207706196163   10.91201266818948
H        11.29253719428337    4.00654370271207   10.96534186290256
H        12.95518890492393    3.75861869507725   10.44251102839104
H        12.30173528357648    3.14548466698964    8.25867108402913
H        10.90895915028352    2.59613999563270    9.17508913968860

