66
CSD_code = TISVUP | q = 0 | S = 0 | Stoichiometry = C26H36Cl2SiZr | MND = 12
C         8.09344697220057    6.53775022398265    4.11418282755930
C         7.56784276770040    6.97301277767216    2.85427974202270
C         8.25870626661446    6.35513640474146    1.78678154122869
C        10.33067536508142    4.74564941034486    1.78436760911632
C        11.13370344737644    4.00381442643831    2.63581804314209
C        11.12776988616152    4.23622612481931    4.03453293998574
C        10.23782082380722    5.13110571811980    4.60688814165345
C         9.22331869454801    5.68859176407246    3.79401654701917
C         9.31688174308567    5.55458875653069    2.35553440774408
C         6.55012575494016    8.06046562031862    2.65856095005788
H         6.91444946031168    8.76589855954083    1.91102192667561
H         6.39292958577868    8.60275911588448    3.58595779832744
H         5.59382910916815    7.66764985973522    2.30770088145339
C         7.90149712370008    6.53749847065764    0.33456675706246
H         6.89033511076339    6.93749512363159    0.24990055680744
H         7.92812301378751    5.57947695039009   -0.19037381224286
H         8.58158338148117    7.23120301036255   -0.16629433817292
C        10.54604800996499    4.72140729431473    0.29622808377201
H        11.58552829912066    4.51135073878081    0.05984041524488
H        10.29324249990268    5.68469960335456   -0.13464207293082
H         9.92383960976403    3.95599235295307   -0.16854896287802
C        12.08880082231441    2.99547275922049    2.05817848455806
H        11.68161451646267    2.56986079560165    1.14547695246637
H        12.26168526111901    2.18085084598951    2.75465135948819
H        13.05277116775359    3.45245848935814    1.82878672988234
C        12.14092767212977    3.51572121667731    4.88203178372511
H        13.14589325297657    3.65642259059101    4.48782385729234
H        11.92896951345186    2.44593442399947    4.88927303762607
H        12.12492138346024    3.85887008137655    5.91013878753135
C        10.38601106536352    5.60726586714570    6.02624174891548
H        10.03853287952503    4.87616937467176    6.75574816080278
H         9.82154018651216    6.52391195976011    6.15683192275170
H        11.43045103519241    5.82673787414056    6.24030892136851
C         6.68373231230129    4.39380437702715    5.32486928098351
C         5.53868608280527    3.90906731124092    4.62164459034828
H         4.55553275801354    4.36556236703519    4.62406086253200
C         5.85368211707565    2.67562599175231    4.01097662777302
C         7.19900680763320    2.37185929166291    4.33682369137475
H         7.71341742259357    1.44912441166169    4.09238215050558
C         7.70921308053387    3.42179129667298    5.12482607138112
H         8.66788654695146    3.40111527278522    5.62423059826990
C         4.91489334388410    1.82276521610428    3.20481794386759
H         5.48739084029744    1.21022739772205    2.49996161020378
H         4.23985375107169    2.46463286153624    2.62623032647291
C         4.08063266060271    0.90806891831079    4.11123896896733
H         4.75184030638793    0.26672518922600    4.68729329313657
H         3.52181884554304    1.52362105794820    4.81996715631972
C         3.10966200798949    0.04425399120819    3.31163172649842
H         2.45009206489442    0.69032241919481    2.72791866476245
H         3.67176547986879   -0.57488585645766    2.60884107810941
C         2.27132580707516   -0.84983674328264    4.21710532353568
H         2.91027982532525   -1.51327140250219    4.79609000351981
H         1.58807161323339   -1.45819969463514    3.62916352115232
H         1.68625530158540   -0.24903484306758    4.91015287242979
C         7.53727917418615    6.73593233693243    7.38126179390651
H         6.66520947329544    6.86386058775749    8.01307453303258
H         8.07637862943765    7.67690327731697    7.37977934800861
H         8.16695130442996    5.98793838143372    7.84583144190248
C         5.22876092558609    7.03160327044173    5.41281604302085
H         4.55536683303809    6.61859543021775    6.15815750049517
H         4.80325999511409    6.83145240510074    4.43310656594901
H         5.24466553899301    8.10503973816639    5.56542541543205
Si        6.96201066153831    6.25008867141284    5.62512308565502
Cl        7.74481382327632    2.98051726966793    1.28620600918144
Cl        5.24226466315239    5.12043461557797    1.83924248488589
Zr        7.20248432077651    4.51674659888947    2.97703768742081

