39
CSD_code = TISWEY | q = 0 | S = 0 | Stoichiometry = C13H19ClN3O2Rh | MND = 6
Rh        0.92711959866057    4.79681738422676    6.19011076704591
Cl        0.39739774866918    2.94502300398392    4.98928265430746
O         3.73071261267676    0.81127375778360    9.26053130564393
O         2.00762144024951    0.06809459704595   10.33473720437354
N         2.10792303810638    2.71857471458454    7.99836923526932
N        -0.00227841507612    3.01134672333001    8.38696626141980
N         2.54555724480151    0.82202685886546    9.54222677928401
C         1.05262618921252    3.48347934411578    7.66624248112863
C         1.71719368331103    1.77905301155407    8.93120262145618
C         0.37849140053290    1.97758988764655    9.16270864639957
H        -0.27762277893628    1.44020684573201    9.81777836205813
C         3.39931473865943    2.82904890719605    7.37200630287402
H         3.30186510711133    3.54418579798594    6.54791222697294
H         3.70938108682575    1.86241659814246    6.97662989629792
H         4.15072319009346    3.16834163224275    8.08611278491786
C        -1.33966210588817    3.52553987219038    8.27034899426874
H        -2.04786371763669    2.70427980705446    8.16728128481799
H        -1.37754463448339    4.15145516035905    7.37035465970495
H        -1.60336874652482    4.12213636635019    9.14592100103458
C         0.02328521257123    6.05928017224451    4.68720258701564
C         1.37370724310529    5.99403856641545    4.42597321753126
C         2.33923935212162    7.11924137465617    4.72442694269471
H         3.12396456448528    7.12448194102822    3.96558821575771
H         1.81069796458914    8.07019798370064    4.64762832683316
C         2.99447937451620    6.97687958702525    6.11166983680603
H         3.27712863361630    7.96364671083892    6.49503925108352
H         3.91589428183209    6.39726414702356    6.01055515827861
C         2.11600413883957    6.28093018205740    7.12607511477426
C         0.77162758724486    6.57953777467293    7.35322766755308
C         0.03725819901300    7.69791030166333    6.64295319715591
H        -0.70831962969423    8.12043995033018    7.31962503977393
H         0.74472049074436    8.49432326013971    6.40915980119317
C        -0.67476368579952    7.21675994790658    5.36353490465487
H        -0.76741151162004    8.04450447101115    4.65245449383313
H        -1.68880446577841    6.89848570159603    5.61946576820479
H        -0.64132134127009    5.41916397112924    4.10698146276522
H         0.37538025562939    6.34202319359655    8.34042430153357
H         2.68062923468106    5.86358507236765    7.96049912653355
H         1.71131742079620    5.27941542021737    3.67509211683189

