58
CSD_code = TISWIC | q = 0 | S = 0 | Stoichiometry = C27H20FeN8S2 | MND = 6
C         5.61504987156019    5.24594136139365    7.68282295372284
H         5.62887623631293    6.06444804168895    8.38809831809095
C         5.70457926908517    5.47957551201022    6.31775456915652
H         5.79628499328673    6.49330493107854    5.96105406462205
C         5.66861686825860    4.41903966247777    5.42774010533701
H         5.72808185447513    4.55884823528340    4.36104720880031
C         5.54974614527099    3.12981954269348    5.95047769523498
C         5.47328400380336    2.98674922984646    7.34572422248285
C         5.36257383846675    1.70857319729244    7.95359681019879
C         5.30514821619009    0.53411758578264    7.18557447800920
C         5.18846452069093   -0.68514901993745    7.85621323323127
H         5.14475417847225   -1.60172945893681    7.29156937266801
C         5.13398596285757   -0.66247912740625    9.23967368819488
H         5.04286983298762   -1.57852137692238    9.80169479260071
C         5.20390353858927    0.54602641580732    9.91872073413607
H         5.17472376493832    0.57777269707910   10.99842265907656
C         5.49719891076047    1.93398887127603    5.14592231135874
C         5.51039719467936    0.94533244006719    3.10226199708337
H         5.56602967619534    1.06319464148138    2.02819429318965
C         5.38655534152715   -0.32576005044749    3.69184906369401
C         5.37364448001184    0.66137814009576    5.74995407374166
C         5.32660049651619   -1.56945211292531    2.87048683827298
H         4.47869326701950   -1.52917777363464    2.18876522704458
H         5.22614455626608   -2.43298258605360    3.52124952519806
H         6.23213337767563   -1.66957833727516    2.27419636500776
C         5.74706692402927    2.58137519323624   12.91332204140071
C         5.00924936637820    6.28450201358081   11.13857292550062
C         2.63987187943038    2.80319027476704   10.86388870641562
H         3.17147609584819    1.95233586240371   11.26076263437340
C         1.30403923107463    3.00445050483730   11.16436059687290
H         0.78377048814443    2.30128226530131   11.79521345014498
C         0.66356147033455    4.12374930555307   10.65827980104589
H        -0.37220807541080    4.32289185832781   10.88727794809150
C         1.39315212653105    4.98243705728702    9.85184206548903
H         0.94580073530357    5.86839383898979    9.43035719717896
C         2.72436966975365    4.69886870886371    9.60381832649957
H         3.31591570516415    5.35824005647763    8.98654223292202
C         8.06548808385732    2.39794860803710   10.74158138888491
H         7.47568013366537    1.50118190987383   10.85781394362337
C         9.39288062247414    2.41573084035941   11.13102371368451
H         9.83876146384206    1.53106436187374   11.55681859598297
C        10.12028412727810    3.58541202539097   10.98023994332093
H        11.15327764233176    3.64049732117617   11.28833363872759
C         9.48121769253451    4.68230532011655   10.42570561927822
H        10.00001310665064    5.61697311292741   10.28315996646687
C         8.14886752609618    4.57208074930215   10.06766721444076
H         7.61833548936772    5.41561944913680    9.65406889951805
Fe        5.39734517275976    3.49175488040129   10.05195172394538
N         5.49723267845963    4.02917716876149    8.21348366562981
N         5.32062905626680    1.72553868326552    9.30960980544859
N         5.56425508333824    2.04664125207057    3.81252548110174
N         5.32036571036850   -0.44756931320119    5.00326750600358
N         5.35207014682822    2.86774939123272   11.84377115804134
N         5.42010276228673    5.27535956595944   10.69719479795071
N         3.35021900530844    3.63598496215136   10.10615166501799
N         7.44091311237165    3.45612195639737   10.22772711704833
S         6.23342352141641    2.07685987474899   14.33258595543893
S         4.49573185001576    7.69877027858102   11.63021567434225

