59
CSD_code = TITBIK | q = 1 | S = 0 | Stoichiometry = C30H23IrN5(1+) | MND = 6
Ir        8.14050786646645    3.97209315386009   21.11610890470214
C         8.13818638007205    2.96187535046106   22.86189263402770
N         6.65555147559195    2.68606418643361   20.03883002981113
N         9.81209611338639    3.10486790068802   20.37127439579496
C         9.53248181094401    5.20425850837452   21.90490966590192
N         6.54772163354006    4.85357310132711   22.00624458932571
C         4.74711403343180    6.41623764925596   22.11715182062012
H         4.21780827532098    7.23566117937837   21.65909668204468
C         6.82776097160932    2.58509413136326   24.88692071200201
H         5.98389221130458    2.82253417553632   25.51645759345009
C        10.84635447902954    4.91533335266656   21.47898314363307
C         6.18124833849388    4.34460481470413   23.20696343443599
C         7.70168012778072    1.58978988003867   25.27298422590104
H         7.54052855994769    1.05794632026910   26.19786823781797
C         7.03830765729831    3.27291242175661   23.69082724759372
C         5.84749185421660    5.86430293082998   21.49280744741614
H         6.18859822254058    6.25814585708423   20.54506850828936
C         9.83216521925843    1.99686346946886   19.63123186923825
H         8.88063406244518    1.51331791617662   19.45342579925862
C         9.34124328050907    6.31105889581105   22.72131898627358
H         8.35266398983308    6.56049738623035   23.08057130558178
C         9.00243502594945    1.95856887247988   23.28237081753454
H         9.86500106115640    1.69736823935314   22.68525103857552
C        12.19635878895955    2.09357156211284   19.37093068584132
H        13.12218412847405    1.69883687050621   18.98265464387466
C         8.79007818012654    1.27958680050596   24.47230783116940
H         9.47850480934509    0.50591037495483   24.77804101770197
C        11.69219047759866    6.82245671840832   22.67230773295964
H        12.51763548616294    7.44971451560737   22.97159628322779
C        11.91467388020718    5.72686385470038   21.86404484406114
H        12.91834886002344    5.50732835736298   21.53401875736899
C        10.40662732043700    7.11222962920910   23.10242866684650
H        10.23331787341261    7.96574712363265   23.74078589803740
N         7.91260498775963    4.93264600345108   19.16258180940486
C         7.07253428775312    4.28569741339718   18.36801469225334
N         7.02395440359136    4.89454273704845   17.15699488167829
H         6.47425619027019    4.61521750660091   16.36063204880575
C        12.18660106969248    3.23797695232903   20.14142627134709
H        13.10849234875366    3.74828985241849   20.36496766568491
C        10.98996580994768    1.45499556815868   19.11075415429583
H        10.94965713422808    0.55380181237148   18.52111620967916
C         4.34991072742648    5.89643173482988   23.34287676448215
H         3.49604165354634    6.30281926593549   23.86185698003760
C         5.07542958461013    4.85678690149963   23.88750250909968
H         4.79629036395594    4.44337052395725   24.84217645080582
C        10.98119896988698    3.73420560952156   20.64111519711577
C         6.34823637976473    3.11119116379440   18.80146296517695
C         5.40142666540779    2.45747307999501   18.01308689173400
H         5.16594268636267    2.81587953502877   17.02321504632550
C         6.03885758309469    1.61677641503129   20.52009525014183
H         6.32692997689125    1.31639745032471   21.51829499132826
C         4.76347256776601    1.34134237479389   18.52386393717054
H         4.02737835881890    0.81675856000442   17.93467941636979
C         5.08746841520534    0.91002613439580   19.80282794197339
H         4.61431113249185    0.04433248696297   20.23556595325991
C         8.41335617861202    5.96909745850944   18.45511709609748
H         9.12038774067352    6.64725748402063   18.88760229014988
C         7.86948728667131    5.96026824658180   17.19925538845761
H         8.01661504194571    6.61110222849202   16.36324174681163

