80
CSD_code = TITBII | q = 0 | S = 0 | Stoichiometry = C69H8CrO2 | MND = 10
Cr        4.30643596543015    0.83308740560354    3.38796395922402
O         5.57471839268292    2.62746424937555    5.38122167947348
C         3.45015513832693    2.19757139462190    1.92030520650724
O         6.85160417099178    2.05541327610677    2.46843759533759
C         2.80531165602302    2.39577360323911    3.22042932155803
C         1.37212919665230    2.10344970125323    3.32040769577182
C         0.65321031778106    1.55057704077772    2.27407281664058
C         1.29343025183251    1.35454250107916    0.98387363096398
C         2.61763478818777    1.72051047902474    0.81134346348641
C         2.99346180184161    2.39727968422691   -0.40040571561966
C         3.97393269818529    3.39195206489952   -0.06356748899675
C         4.19426914810247    3.32916031574146    1.35311889045457
C         4.40678713885219    4.50166922156422    2.05407780521911
C         3.76751626725540    4.69693857401422    3.34319261369325
C         2.95178438406914    3.70819846611779    3.86126782893076
C         1.71630016398673    4.08077459473394    4.48982608283460
C         0.73486420140528    3.08707902653354    4.15292097650195
C        -0.58835500749811    3.45867633932726    3.93967422507813
C        -1.32848388367729    2.87245408837128    2.85823996427008
C        -0.70832484261416    1.93751800496305    2.03507393518512
C        -0.91855996851055    1.98423809576724    0.61053376439629
C         0.31830270130801    1.62410862144068   -0.03472830093170
C         0.69257836798973    2.25621162390528   -1.21644123957883
C         2.06058844742895    2.65081864081380   -1.40038756158859
C         2.07256830046368    3.91566114141752   -2.09331579295339
C         3.01996064983907    4.87507467399900   -1.76809775547828
C         3.99337338385953    4.60784428590877   -0.73836759897277
C         4.21621605840751    5.82238339953316   -0.00661140749946
C         4.41154794340784    5.76470863528739    1.37018866243529
C         3.78117503572451    6.74050211157101    2.22316696502173
C         3.38504178714090    6.07788969908866    3.44016664695770
C         2.19590459038279    6.43856721930938    4.06722355860161
C         1.34388317249896    5.41591488945366    4.60414949220768
C        -0.02560983218295    5.80341237783803    4.37233184867969
C        -0.97348938417059    4.84425867233290    4.04751011808046
C        -1.94982342161095    5.11224829155700    3.02173437339136
C        -2.16822365028038    3.89155569530396    2.28553909489100
C        -2.36756433409997    3.93655113285929    0.91173328463849
C        -1.73318781346003    2.96211909038560    0.05893322083241
C        -1.33975298164676    3.62334852619133   -1.16053120565448
C        -0.14893370172116    3.27610860732969   -1.78540076049025
C         0.70459737635594    4.30330853672756   -2.32948514390770
C         0.33509097434622    5.63747940604561   -2.22868318255662
C         1.32008195358190    6.63497969224653   -1.89083023110640
C         2.63772363374709    6.26113719912139   -1.66587858803167
C         3.37793728720854    6.84591243812995   -0.57480354487848
C         2.77028057839183    7.78365192371509    0.24970465233916
C         2.97917285949275    7.73118388399465    1.67563215433814
C         1.74264415314905    8.09679622151893    2.32149969335715
C         1.35924806813618    7.46134627414482    3.49515378468028
C        -0.01598574228413    7.07000806306633    3.68435764704021
C        -0.95438597203796    7.32807309816904    2.69472687787466
C        -1.93945632655407    6.33064882869327    2.35689808750401
C        -2.14784747189605    6.37605105932666    0.93155379025147
C        -2.35866187873825    5.20060815719805    0.22307606225685
C        -1.72336789389705    5.00701877519578   -1.05780203491580
C        -0.90149323959159    5.99625253668188   -1.58115397576877
C        -0.68178521746243    7.21514957703076   -0.84438776651205
C         0.69110212547513    7.60916601142767   -1.03499920152744
C         1.40402945620445    8.17228617072411    0.01514563623371
C         0.76873565829826    8.36584363846392    1.29589725502189
C        -0.55528300302617    7.98898412274485    1.47776446676935
C        -1.29333289699941    7.40151850145202    0.38845622729652
C         3.94239499696337   -0.76254625317000    5.00619850541773
C         5.11197445996048   -1.08855769027278    4.28194712237016
H         6.03251001859677   -1.28442455506123    4.82034805224554
C         5.06102115906598   -1.28303242854547    2.89279643900839
H         5.95035425525348   -1.60626186744880    2.36547128346966
C         3.85243129555032   -1.14689559035831    2.20712991829885
H         3.79820334993257   -1.34826921080723    1.14543747619567
C         2.69793517210024   -0.80390614744944    2.91829912415862
H         1.74344770064398   -0.78158480412712    2.40814107442066
C         2.73728755283679   -0.63784828165604    4.30983143720750
H         1.81787473921576   -0.45439727144088    4.85285124310068
C         3.98961139577008   -0.64918229311682    6.49828352747875
H         3.97000478590528   -1.64249305905337    6.95012321895384
H         3.13774980719697   -0.08665276001950    6.87263880478631
H         4.90318665227459   -0.15184630537143    6.81750105709287
C         5.03199485863997    1.96121033138923    4.60922365707287
C         5.84359601961755    1.58726860780834    2.78073149945549

