57
CSD_code = TITGAF | q = 0 | S = 0 | Stoichiometry = C22H26CdN2O2S4 | MND = 6
Cd        3.29509524205662    3.97737999308061   15.14370110575233
S         4.00126763024030    5.50843261206508   13.13712748355326
C         2.43341736928886    5.23966104796378   12.57816808995835
S         1.36995016744476    4.15609025530938   13.30820093930448
O         2.10478140387405    5.92816873535530   11.50479690401215
C         0.78802536686077    5.81195722863198   10.98253067318923
H         0.65237562096584    4.79932228540151   10.58269738040364
H         0.06390450520127    5.95447616100612   11.79409550406501
C         0.60533686133590    6.86832791430256    9.89437088196145
H         1.42265100221355    6.74889632957194    9.17602709745084
C        -0.72773441030908    6.65201183486037    9.18497615962835
H        -1.55012452377140    6.73781219772350    9.89178572341324
H        -0.76858346409587    5.66609593028751    8.72790946290157
H        -0.86316699722985    7.39884782253105    8.40704903028853
C         0.68531080361754    8.26606221422849   10.50179924388151
H        -0.12816070106697    8.41916253354470   11.20816971598894
H         0.61593439490341    9.02275101302130    9.72428165267917
H         1.62884078182825    8.39230115264926   11.02606755068747
N         4.26084109927029    2.01535051852816   14.17406055016418
C         5.19095073142805    2.02891132879509   13.24770687806697
H         5.51824889271432    3.00713678531903   12.91372451936400
C         5.73970050424486    0.86073056243221   12.70563024629943
H         6.50240300413544    0.92698799871474   11.94601465527056
C         5.28855961727756   -0.35441089254152   13.15850464921626
H         5.68409429178949   -1.28067939259347   12.76648489979323
C         4.29364011835735   -0.39403303510294   14.15056814076858
C         3.80462960113415    0.84108734025412   14.63557419873404
C         3.77516336938330   -1.61515952130732   14.66908310519573
H         4.16881594533811   -2.54208341850239   14.27833186640606
S         2.58827249940401    5.50983157334248   17.14899635103962
C         4.15511575338185    5.23961945671896   17.71002997664900
S         5.21873595338783    4.15542493690619   16.98112815750241
O         4.48282803276365    5.92770822181158   18.78394996299573
C         5.79873917959522    5.81048667401349   19.30810349822893
H         5.93285789126473    4.79790716743766   19.70860113280717
H         6.52415108956453    5.95195059544643   18.49751041294741
C         5.98082527758670    6.86721854302553   20.39602734751058
H         5.16230173555666    6.74893604835262   21.11317883090098
C         7.31258486432099    6.64998531634252   21.10759009609848
H         8.13613805641687    6.73442627507593   20.40197800257191
H         7.35168680710081    5.66434809878616   21.56540492265840
H         7.44762498775695    7.39721463082900   21.88520864202807
C         5.90310786765076    8.26472779701199   19.78778577940324
H         6.71750942497785    8.41652797198540   19.08220868171998
H         5.97250466630529    9.02175319183748   20.56497814423453
H         4.96029197791736    8.39175448152072   19.26242602389754
N         2.32875965426141    2.01632623121628   16.11430027009740
C         1.39857614748423    2.03083995568858   17.04056304062223
H         1.07090988181712    3.00941230397429   17.37316882078106
C         0.85024917885911    0.86321219494005   17.58425179971843
H         0.08749385366365    0.93024586320334   18.34374517232615
C         1.30189359392055   -0.35238993261263   17.13311884307161
H         0.90670224716748   -1.27825803193428   17.52642672762546
C         2.29686542195776   -0.39302499666183   16.14114838790975
C         2.78543850554119    0.84159878442911   15.65444559017895
C         2.81578864954839   -1.61467653488602   15.62432440103635
H         2.42247857243308   -2.54120235333677   16.01636267493608

