77
CSD_code = TITJOW | q = 0 | S = 0 | Stoichiometry = C28H32N4O12Zn | MND = 6
Zn        4.14927291912824    4.99504269189688    1.75109114176602
O         5.34038752214809    5.78472180940525    2.97029141245669
O         6.87406298716879    7.37537368971712    3.18570076468565
O         5.67609940214314    3.67188578734564    1.10065520310538
O        10.13588513162061    3.71782756272099    2.67468451825827
O         9.29630882720181    2.05689513206622    3.91123948232433
H        10.06637382354187    2.21237342011034    4.48261996229294
O         4.31249329347102    1.27548800945480   -2.86365596474010
H         4.61166600315889    1.66160960566362   -3.69565774201639
N         5.32955940684729    6.25334009451509    0.31653064144897
N         7.90597850462806    3.88482924626836    1.18852517942198
H         8.72838435839654    4.46810474281714    1.09480892570640
C         4.52988488977527    6.49763854367083   -0.87303685798841
H         5.13491950675777    6.86854759033928   -1.71307415554318
H         3.78757275152774    7.25777833252387   -0.62203346188575
C         5.51967755307447    7.38805677303607    1.20703197423400
H         4.56720274248282    7.89006655115620    1.37237900632644
H         6.25686233561555    8.10893651085150    0.83163529421186
C         5.96986370841866    6.82525330080255    2.59175154095851
C         6.60920771747348    5.60597610938193    0.05476547792601
H         7.44414271554643    6.26571149419398    0.31391134703120
H         6.69586291083167    5.33283461637891   -1.00322873241829
C         6.69234734871753    4.31207944068628    0.84959240914914
C         8.08514881778098    2.68786956407521    1.97918582533932
H         7.17352776069401    2.51463975520295    2.55970521097076
C         9.27942710144941    2.90273578315116    2.89093847433647
C         8.36476957011916    1.46339185847003    1.07080034725232
H         9.34977748477350    1.58216215416935    0.61356611862949
H         8.36851923230569    0.56966355524496    1.69461585122380
C         7.31110687928392    1.36926785507326    0.00435256227497
C         6.09377896159304    0.74585055941731    0.25450093146371
H         5.91365098518261    0.28767938830828    1.21426512314689
C         5.10460515998132    0.71133937071338   -0.70591643998022
H         4.15766423810093    0.23255970629403   -0.51553939796860
C         5.31635790947827    1.31220297646922   -1.94476301784655
C         6.52821199622369    1.93936474019208   -2.20281993150114
H         6.70109576858137    2.40430399578564   -3.16586898066803
C         7.51336542505358    1.96597167633537   -1.23143615448466
H         8.45287372747617    2.45619926380298   -1.44506926071698
O         2.94488772122898    3.66789232068785    2.31268015191259
O         1.40609711116605    2.23984170145725    1.59046725290001
O         2.62465180992405    6.46173819555455    1.92309474964545
O        -1.85093260855074    5.54536690792283    3.14896167060695
O        -1.03330805571236    6.22599194043441    5.11387839586319
H        -1.80811147318715    5.77733288916644    5.49076380791827
O         4.02249096714829   10.65737041815307    0.00155098712652
H         3.73412029979984   10.80646082650723   -0.90698402242982
N         2.99329367017189    4.74794442898613   -0.15652601380427
N         0.39537326874707    6.23609826100310    1.85131429717773
H        -0.42214053589366    5.80344579261004    1.43907496334954
C         3.81072036414521    5.19934842941093   -1.27102894625002
H         3.21919697844646    5.35840474324441   -2.18434584597272
H         4.55251302899951    4.42406788053492   -1.47241229140713
C         2.79442464517039    3.31103062609396   -0.04542489949373
H         3.74635465420925    2.79667367775800   -0.17118632292291
H         2.06580753813318    2.92184975901160   -0.76770611909619
C         2.32070148137961    3.01771552694143    1.41273645554049
C         1.71504618180395    5.43799836024363   -0.03347805446732
H         0.87895519649256    4.75003694431507   -0.19835060554845
H         1.64393939999532    6.25435009685734   -0.76136248251108
C         1.61494751309031    6.07013946156191    1.34611527217777
C         0.20133978425162    6.78530691553259    3.17451336434904
H         1.10579539922706    6.60235367047993    3.76326275024178
C        -1.00129588385624    6.09798414141741    3.79503014918140
C        -0.07507339135264    8.30886762169012    3.10473081885606
H        -1.05410266045398    8.46824717732379    2.64705473686784
H        -0.09103508076966    8.69962515427321    4.12206468295744
C         0.99021263425345    8.98247242304421    2.28751110197083
C         2.20264534074696    9.35271220054473    2.85852942937112
H         2.37046862417542    9.19115022083004    3.91181020657515
C         3.20316422448550    9.91610708416588    2.09464546491433
H         4.14665918112043   10.20059747811736    2.53176943041994
C         3.00783745172693   10.11545759849653    0.72986206551716
C         1.80073316230641    9.74722470016818    0.15036926726841
H         1.64041192768535    9.90461126715006   -0.90940372495022
C         0.80422412577955    9.18383120810937    0.92778101786399
H        -0.13131137364852    8.90227869233649    0.46499221001709

