72
CSD_code = TITLEP | q = 0 | S = 0 | Stoichiometry = C26H40Cl2OP2Pt | MND = 6
C         4.14856618175600   13.30613855847257    3.86909423786525
Pt        5.70817125879967   10.83453832527203    2.67381038768177
Cl        7.35952885579168    9.24220886976997    1.67411520933098
Cl        6.41445392356842   12.55498152059327    1.20587664213806
P         4.45217571708414   10.04591014560092    0.82591464942497
P         7.24223918229365   11.22886398456264    4.42011171595127
O         5.19644805874921    9.25081657825628    3.86715098691319
C         4.14951534059261   11.91758791558943    3.51988705073383
C         3.04211103967110   11.17485310639480    3.74585862659888
H         3.04378476444290   10.11235398104794    3.55493444697311
C         1.83900217520708   11.72732111275440    4.27090159124990
C         0.71235247984433   10.91181116665354    4.46374375480288
H         0.78754586641246    9.85913657054408    4.23007554290845
C        -0.45952177804650   11.43826962704667    4.94130126390052
H        -1.32437258203227   10.80827417777424    5.08893149533600
C        -0.53252304209926   12.80062849516156    5.23514117505486
H        -1.45718098648795   13.21809320688079    5.60627777787450
C         0.56073551273296   13.61252114758026    5.05831410796257
H         0.46514714467419   14.66027686799604    5.29532850566069
C         1.77807921732391   13.10278624227570    4.57734710005503
C         2.96547212394947   13.89873670424605    4.39409055810578
C         3.00014344527198   15.25965814563321    4.73853444302793
H         2.11518254755043   15.72858708624076    5.13821233306453
C         4.13204264874306   16.02034754730004    4.59007417686822
H         4.12360040023965   17.06495919903407    4.86460978247352
C         5.29333777030888   15.43846262965394    4.08667005525281
H         6.18913686333773   16.03016151490665    3.96962835511826
C         5.29281099806841   14.11210473975218    3.73937577152136
H         6.18787340343535   13.67015539605446    3.33267848519816
C         4.06007974514057    8.24564423307161    0.86746087275921
H         3.66254767150580    7.98298742158843   -0.11795747142809
H         5.01816960338151    7.73294599959887    0.99462519969989
C         3.08498697798359    7.80959669805367    1.95315324851252
H         3.48330245940525    8.05088287299684    2.93618952781549
H         2.93504918302152    6.73235592198264    1.90022075630678
H         2.11780412147952    8.29319313709887    1.82982379229693
C         2.82178332748434   10.84083845694708    0.49474513199449
H         2.36283178595775   10.32754569151996   -0.35484813725453
H         2.18732677636747   10.68786651418553    1.36957668607911
C         2.96260058612281   12.33341083175326    0.22776721794381
H         3.45483958556355   12.82161316222086    1.06741036567680
H         1.98281134111739   12.78799139526948    0.09265453828650
H         3.55739219935444   12.52227887072012   -0.66273722453300
C         5.36027417898977   10.18231802649836   -0.77272077677665
H         5.77620217319478   11.19105916061610   -0.82448756349118
H         6.20212514688680    9.48836531576182   -0.69614264401237
C         4.55593111857766    9.89344126306814   -2.03443037284097
H         4.10769418552088    8.90233792350145   -2.01764854698088
H         5.22473291600414    9.93821434015136   -2.89208166277522
H         3.77062733882837   10.62959227885661   -2.18753789355310
C         8.00321148083205    9.64445759550357    4.96376075385181
H         7.18039370159967    9.03619009672792    5.34690694027355
H         8.38756317509104    9.15180515404100    4.06670822190917
C         6.57638594160258   11.95509740376320    5.97737009450761
H         7.41567945359299   12.15858059562975    6.64836586604325
H         6.11670061603441   12.91161265635881    5.72031891370501
C         5.55066087738574   11.04302287760460    6.64105290754675
H         4.88398185473972   10.62176689648032    5.89072595048578
H         4.95555440364359   11.60124465096309    7.36058441189163
H         6.03695690552965   10.22271794012807    7.16348557269661
C         8.67578099181614   12.32826942809487    4.05604281387486
H         8.28799997449297   13.32354932343501    3.82757872519696
H         9.27438271945529   12.40383118495249    4.96899303254746
C         9.10155756154795    9.77009799369093    6.01190533315174
H         9.96727715033100   10.30098319551775    5.62372222986711
H         9.42799250669144    8.77401796077263    6.30565404574456
H         8.74860916563488   10.28225215690992    6.90437004377442
C         9.51563568335363   11.82461959262827    2.88950296214456
H         9.92241169743327   10.83600713847519    3.09007739292212
H        10.34163317281356   12.50711423489035    2.69806090372951
H         8.90881359672520   11.76464649815853    1.98878057193662
H         5.76964641659015    8.56109134679524    3.51560703936221

