47
CSD_code = TITMIT | q = 0 | S = 0 | Stoichiometry = C22H14CdN4O6 | MND = 6
Cd       26.96090305216025    2.04275413251495    3.26127184477493
N        25.15877125491391    1.36018398882875    2.25088415306830
N        25.58469776173619    2.88824640522119   -0.37349157026535
O        25.55967050407758    0.68321081624025    4.33617863408189
O        22.06063922855613   -0.25310480835945   -0.96717887103140
C        24.84856864597094    0.54602719235964    3.31367237289265
C        23.76880993093694   -0.38528997596848    3.19403179288205
H        23.54107629305199   -0.98953045071180    4.05755844685265
C        23.08013400178848   -0.51825090187486    2.01992318632315
H        22.27629763372830   -1.23132448180269    1.91375720004148
C        23.44960676956890    0.29330830293138    0.93833377898273
C        22.95175189301978    0.37079541040919   -0.43758228079053
C        23.80498551067942    1.42876450397092   -1.08279916259452
C        23.82792202181426    1.93675799134666   -2.36266428299032
H        23.15173040791506    1.57605470808843   -3.12284802546129
C        24.76693471748714    2.93672286568615   -2.62828621533710
H        24.83969832730203    3.37188188740085   -3.61243111091512
C        25.60448712949973    3.37206045434067   -1.61763511648754
H        26.33504887921498    4.14957315922210   -1.79497776259551
C        24.70831712165716    1.93296251623809   -0.13144116291954
C        24.49239507955592    1.21051821152979    1.12749365661261
O        26.96773876896534    3.88377089727540    4.75010080756040
H        27.31689512724894    3.46590271568036    5.57873742314354
H        27.67370369606873    4.47194890319143    4.45823790546443
N        28.76373811615343    1.35946778354997    4.27068668910352
N        28.34069906938796    2.88764332276022    6.89555760200787
O        28.36046504388315    0.68191050400040    2.18599976392727
O        31.86917395293237   -0.24976406377296    7.48375665240675
C        29.07319157738619    0.54557757326061    3.20746425629165
C        30.15388583069814   -0.38485196257849    3.32562608532148
H        30.38071476857716   -0.98908138613968    2.46185937578853
C        30.84468532518814   -0.51682338283004    4.49858171197878
H        31.64942963753188   -1.22904361338345    4.60356840299893
C        30.47615350066117    0.29456987460042    5.58062275298988
C        30.97627317139160    0.37285544722889    6.95566412687752
C        30.12298452157857    1.42999054634329    7.60215280324473
C        30.10163741724858    1.93813221996666    8.88198891654708
H        30.77945184863820    1.57821085821883    9.64109774799833
C        29.16194581059425    2.93706761814613    9.14906513258489
H        29.09030249908473    3.37222390676187   10.13329288703440
C        28.32235625618424    3.37149092429778    8.13970580975471
H        27.59135531169320    4.14834588824785    8.31811427969234
C        29.21758848240345    1.93314683814766    6.65221119104926
C        29.43210262026090    1.21065842966952    5.39303248941416
O        26.96163681786468    3.88220575384086    1.77034951908315
H        26.60910251915210    3.46485800454731    0.94281344523233
H        26.26064214460641    4.47686447137733    2.06094271734845

