59
CSD_code = TITPES | q = 0 | S = 0 | Stoichiometry = C20H32NiO2P2S2 | MND = 4
Ni        2.01395785587340    0.14458980356182    7.91379755766587
P         3.78284353327259    1.28598774453182    7.35449075837566
P         0.25180401004029   -1.01234031534282    8.47021283757213
S         1.19063879781473    0.18117414241240    5.81775970099771
S         2.83045505769751    0.12470271006484   10.01345021208439
C         2.25272577132418   -1.09289658856855    5.27468289534676
C         3.03841282016998   -1.81024553194857    6.17450787612651
C         3.88809645073745   -2.81282010519609    5.73755404511659
C         3.96269418539193   -3.11978691815430    4.38519754752539
C         3.17103366176752   -2.40647312266214    3.48193193376711
C         2.32991267563989   -1.40922672767975    3.91721926489084
C         5.56164164570590   -4.85553130773868    4.70349802213886
C         1.71089384334604    1.35316598332094   10.54720057062407
C         0.94099485710218    2.07143249589926    9.63426796540827
C         0.03143749142067    3.02397890119621   10.06276388569056
C        -0.11917468859546    3.28032903044744   11.41938334616078
C         0.66279181760007    2.57263107094380   12.33538439210880
C         1.56306842852193    1.62437710840494   11.90855555646367
C        -1.80040488936598    4.93316622343210   11.08318672508343
C         5.38311858099350    0.47436672759917    7.71783480578615
C         3.97893785346413    2.89156376670709    8.21353868252598
C         4.05189056830232    1.80041075326823    5.61618765844400
C        -1.35317022576360   -0.19567319155854    8.14059270860144
C         0.04177583547062   -2.60212717040267    7.58474571326327
C         0.00329174646045   -1.56143802624847   10.20105651573865
O         4.76372271082143   -4.08768366292078    3.84018100358125
O        -0.98970221415083    4.19054106488741   11.95685108181814
H         2.16072779712292    1.07632711039831   12.62103179685740
H         1.72197144635788   -0.85951497016376    3.21487992072128
H         4.48073734498800   -3.34483061723328    6.46622177698630
H        -0.54870598466130    3.55643580569127    9.32437827095830
H         2.97850265351650   -1.60223250495103    7.25776881633283
H         0.53907638013726    2.78589091979434   13.38554775829541
H         3.23792899471049   -2.65775185194714    2.43505339042598
H        -0.90592158183191   -2.15702247886759   10.27143896303699
H         4.96549443291277    2.38894650644480    5.54350896398068
H         1.05968967826084    1.90385439279635    8.54891464872851
H         4.13088787312526    0.91897929094614    4.98215776905849
H        -2.16470538467282   -0.89362865320143    8.34215208854595
H         5.40530958374106    0.17902113495276    8.76483009506099
H        -0.89987014821173   -3.06103868946697    7.88386202071891
H         6.19795906766895    1.16637603798780    7.50937513372574
H        -2.40110520010556    5.58319239335937   11.71764958952264
H         6.29028716014612   -4.23677831369697    5.23907361422524
H        -1.38618029016606    0.12191141510915    7.10029637239458
H         3.96472277798365    2.73256420673213    9.28999024954651
H        -2.46473804294406    4.28629389541682   10.49950473732250
H         0.03893260509682   -2.42494365765821    6.51105185562359
H         3.15793611368133    3.55378652793951    7.94298231577992
H        -1.20318055006023    5.54776712923678   10.40087185610931
H        -0.07458834898635   -0.69330454294406   10.85319813397795
H         0.86634613977979   -3.26961494338400    7.83024753818831
H         0.85956608041201   -2.15324971700299   10.51882256544510
H         4.92486288447501    3.34613659436799    7.92139896786864
H         5.48726099257982   -0.41176575817669    7.09375920846222
H         4.95551828083758   -5.40949789897895    5.42866167751740
H         6.09203317794239   -5.56189042530365    4.06648175060869
H        -1.45216686868153    0.67653225642384    8.78467468546220
H         3.20262275387674    2.39087454713989    5.27788020560256

