40
CSD_code = TITRAQ | q = 0 | S = 0 | Stoichiometry = C16H16NiO7 | MND = 5
Ni        5.93417276941777   15.36095363733524    4.28902521474094
O         7.65294535158973   15.12671981605863    4.97964485643729
O         5.22920550386600   14.16500468120514    5.55313571132345
O         3.70606782855908   12.66613421958828    7.04947239184589
O         6.68094438311118   16.43097422283779    2.95321032405909
O         4.24705689447261   15.46263359630266    3.46971768224203
O         1.73674957075439   15.22353036598139    2.79908713748589
O         4.96381425055518   17.01787620027633    5.80000088409289
H         4.18178020721490   17.19220021985462    5.26418392642771
H         4.68862253853804   16.36275941872887    6.45231868533046
C         8.02897746865534   14.38183185954257    5.89908479014335
H         9.10799745952258   14.37744501331775    6.11726103016561
C         7.23147443643820   13.53431309476583    6.70179074848322
C         5.82493997010259   13.49227203632330    6.45685415274436
C         5.04061174655941   12.63215206519160    7.31316951503401
C         5.64346444473712   11.88197187430078    8.28760938090069
H         5.05752551105578   11.23552147522022    8.92240125423237
C         7.03493159979137   11.93371547878101    8.49170223539428
H         7.46938854177723   11.32544710939758    9.26959169878907
C         7.81159602454313   12.74267191699199    7.72158727166099
H         8.87923211943886   12.79779676985648    7.87175702389066
C         2.85677316870592   11.83183515625362    7.79348020422417
H         3.11914537511590   10.77561886009215    7.67045866509492
H         1.85681008426163   12.00254846097390    7.39819863052034
H         2.87337064607650   12.08615370669439    8.85932533192341
C         6.13946830368248   16.90991949803447    1.94351731594935
H         6.78511659906254   17.49600377646052    1.27156202773368
C         4.78694154488878   16.78676785446345    1.55117026797858
C         3.90374675137152   16.03232673204955    2.38282893580367
C         2.52822880989559   15.93358923523875    1.95037490105296
C         2.11971602313504   16.52747612428647    0.78583520938575
H         1.09390905505530   16.44788615897686    0.46092009161682
C         3.01792724433108   17.25683914064745   -0.01539643634569
H         2.65419427190076   17.70915546023952   -0.92478347939901
C         4.31955842005490   17.38739760244244    0.35769624964530
H         5.01874763273815   17.94701540828534   -0.24513354514144
C         0.39335330686527   15.01940932489333    2.44631609259128
H        -0.15538257397760   15.96568140280047    2.38076756623502
H        -0.03098062674459   14.41179690738637    3.24382449869713
H         0.30285734287333   14.48325411792382    1.49553155700810

