105
CSD_code = TITSOH | q = 1 | S = 0 | Stoichiometry = C47H51BrNiP3S2(1+) | MND = 4
Ni       19.36194861118447    7.28041527937724   10.72160608234129
Br       20.85414726301231    6.50943625674222    9.25395793515521
P        15.08158446905676    6.03222593533459    9.39020941302386
P        15.14971413481896    7.72864865145553   12.84344737604273
P        20.99934864945839    8.23403864496337   11.77945182173459
S        17.74862085717119    6.68633856667567    9.40179970756432
S        17.94838256087723    7.74104875602360   12.31811649411524
C        16.32665119322153    6.82008176268353   10.38034043959304
C        16.39193950202520    7.36543051999319   11.63079841286730
C        15.66327698408496    4.35392302333356    8.91732143856695
H        14.76979209870401    3.77157337041280    8.66536867195409
H        16.25717709458620    4.49115882234196    8.00587260551829
C        16.50715605924269    3.61085633489546    9.95518006786841
H        15.94804799471066    3.46761736226880   10.88320282145103
H        17.40154896766332    4.19292349864962   10.18603724908230
C        16.93204977356608    2.25464257473044    9.40785408217734
H        17.53490183232024    1.72761661690440   10.14226995607697
H        17.52741142568683    2.37932815641167    8.50714043419478
H        16.06468332561450    1.64196446184389    9.17084226191022
C        14.84363921610978    6.93532788753844    7.84541580500449
C        15.38635394264159    8.19733711181211    7.63567136681332
H        15.98195540391399    8.66859264996811    8.40413743268252
C        15.18610671210282    8.83588971034572    6.42489357799839
H        15.61525889136712    9.81168051692079    6.25682894050450
C        14.44560987740877    8.22128548706713    5.42861786584930
H        14.29679693222907    8.72031348407578    4.48371606856000
C        13.89962698887809    6.96377947036453    5.63871812525434
H        13.32555697146095    6.48498171922534    4.86050490910855
C        14.09564817403940    6.31781295965583    6.84429197369611
H        13.66977634095042    5.33837867512774    7.01555941131343
C        13.43719444817326    5.82283245385122   10.13350951851735
C        12.35606463319659    6.57819546859330    9.69092201333524
H        12.49525158965033    7.31027230407528    8.90878011500038
C        11.10392983675086    6.37662022907719   10.24146766779667
H        10.26574660454375    6.95686211586632    9.88816831338941
C        10.92212210772180    5.42461573294528   11.23175600748280
H         9.94253601024498    5.26567956442209   11.65479077982582
C        11.99463194561490    4.66332377195833   11.66770263514722
H        11.84946661918128    3.90809996329608   12.42595498580021
C        13.25007317915769    4.85899058651019   11.12039118021056
H        14.08362441767187    4.25001258333311   11.44095445130989
C        14.72261105776786    6.26940092080866   13.86297150856611
H        14.34035762430108    6.62405237018591   14.82525291738697
H        13.91776667605502    5.73087640613377   13.35316055019997
C        15.94044608500987    5.36245875613708   14.05890369551825
H        16.28341162534252    5.00456335755430   13.08384518057384
H        16.76349880886344    5.93249385429400   14.49820168817752
C        15.60068425624535    4.17533186537695   14.94916001983499
H        16.46920828912188    3.53346283233305   15.06795988679698
H        14.79557296211079    3.58569832531212   14.51548884228321
H        15.28636977344979    4.50927613122417   15.93540010475013
C        13.63908865462724    8.40915909439945   12.11728687453946
C        12.42734808427646    8.32019372744017   12.79402799099491
H        12.36072914315190    7.76737137046643   13.71953800136811
C        11.30900216355785    8.94880394576538   12.27814792037752
H        10.36809690123945    8.88138361025639   12.80215288567215
C        11.39734023825835    9.67447864367575   11.10039066837179
H        10.52416260491970   10.17332529052052   10.70929523035931
C        12.60427331852582    9.76511669628495   10.42611413798195
H        12.67371040611058   10.33061005334438    9.50908675367996
C        13.72540402934926    9.13397101206967   10.93233262804419
H        14.66959929877413    9.19715882293449   10.40810704441728
C        15.81234472509179    9.02744703970120   13.91075165673017
C        16.13529633883962    8.81093295710994   15.24512456020134
H        15.98395055793170    7.84588422258964   15.70455856581991
C        16.67190471785969    9.84435263858050   15.99236444231735
H        16.92173195158046    9.67626471657773   17.02857261887319
C        16.89125951861054   11.08373177079618   15.41636074145036
H        17.31310992126781   11.88390796022787   16.00397525917262
C        16.56942329727945   11.29956155020260   14.08532504833290
H        16.74269605962659   12.26455153095054   13.63450219256839
C        16.02565491408242   10.27792876014249   13.33292960412784
H        15.77323807735343   10.43961534340558   12.29356161693642
C        22.57111734885396    7.31829914620500   12.05747806654085
H        23.06961248355123    7.27558143917330   11.08374221227256
H        23.18899757172273    7.88925468622690   12.75589531223519
C        22.33760718786398    5.89606587651032   12.56904689199144
H        22.08263564512656    5.91682741899678   13.63070502740770
H        21.49591597712624    5.45247763842420   12.02290538481579
C        23.57481012436784    5.03357059741527   12.35940313385820
H        23.41177942916189    4.03389786662765   12.75380405849827
H        24.43358668834851    5.46726833394379   12.86703403425899
H        23.79913782614861    4.95277128521281   11.29895169933969
C        21.47054933498978    9.65483000538244   10.75123702355893
C        22.66167615914089   10.35213568005509   10.92079358613077
H        23.35556986592167   10.06195352437282   11.69593183344253
C        22.95304091577294   11.41836620470206   10.08897201605524
H        23.87997587410409   11.95728665284858   10.21474658645655
C        22.06493617909067   11.79235865085246    9.09272130674185
H        22.30351907579196   12.62097942214808    8.44353186413292
C        20.87658877801723   11.10081045375368    8.92127690437678
H        20.19056313035970   11.38704121228375    8.13823223172801
C        20.58249947786445   10.03513829242151    9.74977158644240
H        19.65765552311280    9.46368743535188    9.61613633995994
C        20.63014578600785    8.95761713739483   13.41286491373201
C        20.66013563030004   10.32690183837410   13.64714119627836
H        20.91981768317141   11.00663626505879   12.84827483280356
C        20.36729413016826   10.81925878519765   14.90672306353835
H        20.40793034928917   11.88351832740516   15.08592442179244
C        20.02942094651372    9.95495242918744   15.93400617520516
H        19.81363947898445   10.34332720965983   16.91802929646032
C        19.96753420671513    8.59123798710589   15.69766753450596
H        19.69366574616305    7.91486563420693   16.49429966100688
C        20.26028970790917    8.09513074882836   14.44217233037034
H        20.19810601758710    7.03303319691284   14.24775822197601

