79
CSD_code = TITTUO | q = 0 | S = 0 | Stoichiometry = C32H41Cl2N3Ru | MND = 5
Ru        8.10584064120684    2.78858899143132    5.48513414391890
Cl        6.53776325678266    2.21978242355432    3.87629719139384
Cl        9.88517635787541    3.75524683593945    6.67994337807583
N         9.38562531354005    1.17082652637232    4.74899408447061
N         6.53265705068554    4.93459718696321    7.05418258183955
N         7.38965686278825    5.54212392927165    5.16175511304935
C        10.23548846088271    0.66850584841312    5.85276920874064
H        10.60130386072609    1.55841482838853    6.38464664562478
C        11.47630602107008   -0.09444757360809    5.37442733131632
H        12.14328658100203   -0.25909235282931    6.21638849744759
H        12.02377945963474    0.49764737690528    4.64574443566458
H        11.22649019588112   -1.05493305219414    4.92988085699656
C         9.39148912391530   -0.10591020931432    6.84631604510196
C         9.84855001276091   -1.29994383953006    7.38268467691277
H        10.78968829183836   -1.71473661794754    7.06174232077050
C         9.13433294382289   -2.00131421706332    8.34107005094961
H         9.52878127095407   -2.92825973351387    8.73002517480940
C         7.92397663515763   -1.50651048222288    8.79728597196830
H         7.36298286755160   -2.04088363608512    9.54980254265460
C         7.44316078846590   -0.32730316337263    8.27885210138083
H         6.49968136328375    0.06774593651076    8.62816940199520
C         8.14101805675387    0.40351651150468    7.29313828977171
C         7.51491717350361    1.59437702393304    6.83195198659654
H         6.55528292308508    1.77674202512408    7.32627309486940
C         8.79474512824204    0.05016959567493    4.01555470821946
H         8.24296278562647   -0.58959494597652    4.70343256702079
H         9.56469544217743   -0.54177927017334    3.50870806689131
H         8.09924107585357    0.42701674037086    3.26629058478115
C        10.11257658401563    2.02191151338655    3.80743592683639
H        10.72360217985291    2.75116842445153    4.34713789751760
H         9.39061260885697    2.55357382274479    3.16977869981325
H        10.76459648536198    1.44327614094071    3.14061647491474
C         7.16292514467644    4.49899912742531    5.96908334040959
C         6.27276651953443    6.37313850014070    7.02732772451760
H         6.76232524103627    6.86193217591960    7.87368207519891
H         5.19659026042475    6.56332043532777    7.09753884812551
C         6.87009177626203    6.79991672830160    5.68357996571037
H         6.12551338276898    7.21972113374860    4.99916183862014
H         7.68110286911216    7.52516404625500    5.79936308613182
C         6.00760131333330    4.14067191153152    8.10746460670295
C         6.67444157111424    4.06662820549075    9.32936523114393
C         6.12133944799417    3.29050947719740   10.33913616957065
H         6.63784514251439    3.21887713504312   11.28560571212201
C         4.93312182255922    2.60079040776031   10.15873047057717
C         4.28844119039116    2.69247882331556    8.93201114667419
H         3.36527206932372    2.15219841332145    8.77675109159318
C         4.80857406365877    3.45228847223855    7.89648470972728
C         7.96691432806201    4.78762239557880    9.54918827578756
H         8.48343796707478    4.38516000937744   10.41622234403513
H         7.79559512360251    5.85080489747782    9.72090665006160
H         8.61252909707410    4.67924117603039    8.67994559867469
C         4.36450287736089    1.74478208320685   11.24976444381034
H         4.78103925626676    2.01762708575806   12.21599878163978
H         4.60051788553171    0.69690583629098   11.06199195132869
H         3.28145792965757    1.84018066904883   11.29104962204395
C         4.13007075721449    3.49601500165496    6.56261954916119
H         3.19523413876691    2.94305637279481    6.58884464425188
H         4.77680568494038    3.04598639101946    5.80685269279498
H         3.91681299189116    4.52117320253690    6.26221103928068
C         7.85461514025423    5.41626554932533    3.82051260994405
C         6.93687328053002    5.09572962258559    2.81066884599498
C         7.41047916336952    4.89025738774269    1.52360441994990
H         6.71008955495838    4.61436095737819    0.74879238725133
C         8.75597564144875    5.02332478319516    1.21309819333996
C         9.62568292210645    5.44771879363942    2.20610025651466
H        10.66615830509336    5.61641698524496    1.96483674217952
C         9.19530927514838    5.67322086465657    3.50764766665673
C         5.46107476184861    5.04453795390930    3.06709231512640
H         5.23914847133102    4.83593688968299    4.10876870356263
H         5.00220523598482    4.26697617754314    2.46317634224157
H         5.01432219806610    6.00293341888248    2.79288620573339
C         9.24183259590530    4.77055884154778   -0.18194461938235
H        10.31655143373675    4.60496858821699   -0.19677626972971
H         9.02085325396823    5.63000944428904   -0.81566441961446
H         8.74329084301356    3.90337279735472   -0.61002829888552
C        10.13881425149950    6.26375596767048    4.51051503590255
H        10.03760382363878    5.79707513698469    5.48777622700958
H         9.93355190444211    7.33036666182518    4.61760264341287
H        11.16833028831254    6.15060047646082    4.17922335077945

