40
CSD_code = TITZEE | q = 0 | S = 0 | Stoichiometry = C14H17Br2N3NiO3 | MND = 6
Br        8.82223223651462    3.20074225783535   11.94986160864230
Br        5.58223775690566    0.79103686433952    9.40471528310664
Ni        7.14257791559533    2.20011348255873   10.56504786603018
O        11.30754783326810    0.82221160049938    6.59483166097277
O         6.90791213428004    6.58919157514217    6.07445152395316
O         7.50985625019747    0.17981598707387   11.97819917860799
H         6.68973910786384   -0.32493939818696   11.97525238307027
H         7.70655413256507    0.46088142827950   12.87742556927542
N         8.39689799892034    1.80512420037563    9.34012897173925
N         6.85720851028650    3.93635819479625    9.23351084011585
N         5.92326798785740    2.62621373036141   11.71548383350382
C         9.15939621114409    0.72462089000133    9.47553749389012
H         8.97886597607354    0.11125874398692   10.34930221010943
C        10.13292471646133    0.38065526609385    8.56954866047310
H        10.73495446263928   -0.50131677803870    8.70593874285361
C        10.34205721892497    1.19838021263174    7.45245709737146
C         9.54089645672230    2.32685857076266    7.32000720061365
H         9.66151445509356    2.99320618082612    6.48421507601024
C         8.57204981869444    2.60487794124855    8.28050391951845
C         7.69400503556389    3.78131671862031    8.19477387753162
C         7.70616255924490    4.67388827469713    7.13394316345458
H         8.36298591791468    4.56110392285837    6.28876313225608
C         6.83636469309004    5.76579243351150    7.13807843105789
C         5.97777618657211    5.91454645637968    8.22596797334009
H         5.27969986717993    6.73150837334145    8.29952641328361
C         6.03630129217698    4.97040435749962    9.23482213607321
H         5.38239414207928    5.05533632363071   10.09333932335374
C        11.55370157300400    1.61162787277425    5.45242890759805
H        12.36278611671847    1.11361389668024    4.92154987275991
H        11.86912449502114    2.62299760555219    5.72608166777421
H        10.67309884772431    1.66208016189065    4.80491921728844
C         6.05346959711097    7.71058442204845    6.02662172018350
H         6.28896892367026    8.21908175237521    5.09362425179322
H         6.23772502562851    8.38798753202556    6.86563737803898
H         5.00160038571984    7.41022365262034    6.02078003391337
C         5.09857227148970    2.96491496717492   12.43978094708156
C         4.07240136979929    3.37741251611451   13.34554088043240
H         3.10842952847660    3.36473538187105   12.83652751053314
H         4.28493139997726    4.38419301646228   13.70549764624935
H         4.03930959182907    2.69415941128023   14.19407639614980

