38
CSD_code = TIVHOV | q = 0 | S = 0 | Stoichiometry = C12H21ClN2OPd | MND = 4
Pd        3.50364980919570    6.29416407055051    7.60590322184976
Cl        2.06676830070469    8.04653338194874    8.30645657144381
O         4.46576928766171    2.51275859120379    6.07710890367690
N         1.99710179415563    5.10530997872940    6.90771908634671
N         4.91449234093021    7.42374865971259    8.29311098191249
C         4.74984325935997    4.78481967858743    7.01515081624926
C         3.88540811002612    3.53347835176289    6.89294431090934
C         5.57767773172438    1.87731369246730    6.64763049327621
C         2.55836241820206    3.91849436798782    6.21601957087605
C         1.61084258965758    2.72570887192712    6.10547133872446
C         1.14886902826527    5.88225888865793    6.00033485226667
C         1.23509894259228    4.76403341602092    8.11537903018284
C         5.45478840627718    8.35615561138067    7.50903602480096
C         6.21327758153514    9.39729121576902    8.01394483374723
C         5.11119794344965    7.49239298077997    9.60970222874755
C         6.42103929093462    9.47471547344368    9.38284285484783
C         5.85762656632871    8.50007650405479   10.19324012057021
H         3.69046943349078    3.10284967010505    7.89252277969231
H         2.82713357707707    4.23736876165508    5.20135588544336
H         5.25693727293170    8.26438279938392    6.44219727716340
H         6.62459546023110   10.13821192579158    7.34669380348724
H         4.63679106797912    6.71757709302934   10.21001190791645
H         7.00163970540895   10.27844536002677    9.80897132114770
H         5.98567259024065    8.52640940896302   11.26387641614952
H         5.15397406408200    5.02374546101392    6.01851143204229
H         5.59640003598849    4.60117107861185    7.69013923944496
H         5.84887538375819    1.06866275498171    5.97099081466705
H         5.33370919092980    1.46049875896991    7.63369755997480
H         6.42978906882171    2.55769673348696    6.75403789176608
H         0.67268109755072    3.00306426384586    5.63070587092900
H         1.40469836665723    2.28754079117425    7.07865339406136
H         2.09810600201764    1.97211335842883    5.49348906522950
H         1.74045123788721    6.21658796274661    5.14282919053346
H         0.77428718780810    6.76134624375488    6.52945042011160
H         0.29757103639981    5.29158676949437    5.64224528653199
H         1.85037556556817    4.15403370644019    8.78324690116782
H         0.31491292670636    4.22189733887894    7.87170104329333
H         0.96671632746472    5.69305602422885    8.62947725881497

