55
CSD_code = TIVJOX | q = 1 | S = 0 | Stoichiometry = C26H24CuN4(1+) | MND = 4
Cu        7.72826984160811    0.00120145844035    9.68197597668765
N         6.24291264832339   -0.78617892428359   10.74786512776307
N         6.26859493486397    1.00086657477826    8.78827163341761
N         9.02526338553388   -1.02503150351751    8.57262338528954
N         9.36016472941115    0.69322117101249   10.56677898859714
C         6.26849839302098   -1.65427621379952   11.74719987653020
C         5.12503297955280   -2.05634186133823   12.41723484134056
C         3.90018869050771   -1.52496921721552   12.02861686459184
C         3.86773147249130   -0.61374800724014   10.99070903906294
C         5.06465325091250   -0.25959880085762   10.36302962102847
C         5.11981253159096    0.68386740092511    9.27545024841406
C         6.45401049108722    1.87140682415732    7.72935683681902
C         5.46244747261241    2.19930029117874    6.79858758898514
C         5.74406378523151    3.06594758231398    5.76413616478654
C         7.00565438963713    3.63961805857103    5.62306788325677
C         7.28978808520914    4.60125501199929    4.51808110596527
C         7.99360384260024    3.30175587186942    6.54666784621788
C         7.72925891567189    2.42553979101236    7.57525336601612
C         8.82409876070305   -1.84752533441191    7.55483540075120
C         9.86297937470466   -2.42027315787676    6.84029372481514
C        11.17091932829629   -2.11801841066724    7.20328359724684
C        11.38728910512954   -1.25670759203386    8.26146128798464
C        10.28615124434469   -0.71991552724553    8.93356600780978
C        10.42318456941165    0.18983096290696   10.04211424322210
C         9.35652963232273    1.55960330819429   11.64538089060664
C         8.18983220349405    2.29935679859514   11.86273407188168
C         8.10715043174640    3.19037500053114   12.91026114442128
C         9.17446325644049    3.36029436210333   13.78889993003807
C         9.08938965069730    4.30759837038524   14.93864994406004
C        10.32666242920758    2.60181839217142   13.58562848929101
C        10.42671945296252    1.71781411994879   12.53388019433695
H         7.24070197464081   -2.04298045007484   12.01648214717736
H         5.19015962835762   -2.77027045899582   13.22179447144602
H         2.99086944037962   -1.81941857221292   12.52912670094723
H         2.93865499178476   -0.17565614757427   10.66147792789490
H         4.18391107116615    1.10862714999389    8.92195904358276
H         4.48287502393598    1.75043333036750    6.86239629242070
H         4.97243064159972    3.30175793307634    5.04649251436811
H         8.32906534566644    4.54049169190711    4.20473180679589
H         7.10485608370446    5.61942026769236    4.86269320378255
H         6.64584418694869    4.41678188165973    3.66218152202252
H         8.97980957587520    3.73073726352756    6.44901923411642
H         8.49384283827875    2.16068551581727    8.29359702342482
H         7.79268089919996   -2.05690433504119    7.30741711196384
H         9.65466044572480   -3.08917354047147    6.02149035180604
H        12.00228557881492   -2.54903809191858    6.66744628686881
H        12.38628832147340   -0.99422416095974    8.57226655871031
H        11.42763979030507    0.43266341746549   10.37833086108428
H         7.36326869710269    2.16576224684038   11.17711065729833
H         7.20294852154016    3.76253955999260   13.05478348519936
H        10.00221791181534    4.89388145274601   15.02137144511054
H         8.97128225421779    3.75227347501045   15.86933583966462
H         8.24311386501112    4.98052031240420   14.83252374198791
H        11.15577282812565    2.70900258782840   14.26955947276433
H        11.32430080501110    1.12890087031513   12.42071697831598

