31
CSD_code = TIVLOZ | q = 0 | S = 0 | Stoichiometry = C10H17ClPtS2 | MND = 4
Pt        0.86004789623737    0.72000683759531    2.13981785658591
Cl       -0.43839492985493    2.68316134618700    1.57532716160601
S         2.76736080405930    1.98860453167504    2.61463941197481
S        -1.10213190417708   -0.42079420158485    1.61177966341974
C         1.84695162229084   -0.94927615503053    2.62971721614416
C         2.47199884776387   -1.72948049617150    1.66512098976579
C         3.10572777371788   -2.91263090214228    2.00918737765139
C         3.12248027943940   -3.33283310032146    3.32792324315290
C         2.51030063728798   -2.56212543300245    4.30086970644744
C         1.87982945902717   -1.37854613166362    3.95136509993188
C         2.06243190386207    3.28843475850646    3.67188439439214
C         2.86909464372437    2.91727359656936    1.05631803179866
C        -0.97152011825224   -2.20547739953946    1.94911898045754
C        -2.01091813795452    0.05829700878432    3.11295339980812
H         2.46503644218397   -1.41270740656143    0.62826423282962
H         3.58748859276721   -3.50837636221198    1.24622766997876
H         3.61479031310081   -4.25610119968684    3.59781603349437
H         2.52562619143408   -2.88179372819616    5.33385310754137
H         1.41119385004697   -0.78035886436784    4.72689773831041
H         2.78048237680434    4.10067629576398    3.74597729375282
H         1.12373647910018    3.62606184350997    3.23570265612709
H         1.89192863256862    2.85219938623488    4.65185920619225
H         3.60227480109891    3.71119542669641    1.17208230762108
H         3.19044455745920    2.22208884160728    0.28565415442198
H         1.88638779523113    3.31962486828996    0.81946039543966
H        -1.97386640240229   -2.62466384973511    1.93123440668254
H        -0.37172421749519   -2.64485986915919    1.15929143490281
H        -0.49389724213185   -2.37990026169986    2.90789185504692
H        -2.11168416743503    1.14045518647171    3.08992642524295
H        -2.99252684117189   -0.40773886281485    3.08846231420343
H        -1.45984993832590   -0.25211570400066    3.99757623507747

