71
CSD_code = TIVLUF | q = 0 | S = 0 | Stoichiometry = C26H42Cl2Ti | MND = 12
Ti        1.98093277235402    1.41438669765848   16.38024418246404
Cl        0.48316692305975    2.99020923218191   16.85584431534397
Cl        3.41458540543295    3.00373729153787   15.76870967848705
C         2.27828571800264    0.75911425853767   14.05171672178435
C         2.06210313142779   -0.37392111248111   14.88477510276479
C         0.76015342532207   -0.33393261731298   15.41841808844025
C         0.15779520155903    0.83254575127970   14.93224749863119
C         1.05781764593743    1.52622811516722   14.07526577055387
C         0.54965769598871    2.69736629096737   13.23314624107361
C         0.53419050622325    2.27983700541044   11.75279502272027
C        -0.90803787069471    3.04203829965464   13.59063565267466
C         1.34654033706877    3.99081683359514   13.44221837968951
C         3.55081413621713    0.73895159519029   13.19755116291139
C         3.30064780152067   -0.26984711232210   12.06031794972718
C         4.01953554611849    2.06141482159570   12.58530124049674
C         4.73526908508919    0.23669402195920   14.04892496682962
C         1.70506312843768    0.96580296134178   18.76626564938057
C         1.96503190733594   -0.22583756834104   18.03322795502862
C         3.26587997608458   -0.18249124341879   17.49604032543447
C         3.82258285018585    1.04336168982768   17.88050179131502
C         2.89543397853415    1.77335203285649   18.67538861675325
C         0.43381940261231    0.97122858831574   19.62238175330387
C        -0.09072651229215    2.32403801746062   20.11043808230910
C         0.72471348732855    0.08323195141359   20.84730349967791
C        -0.72747145235240    0.34296310870489   18.82440333588632
C         3.35465843470640    3.03467232257593   19.40792973159483
C         2.50952119620867    4.27141595011625   19.07930006414713
C         3.37939029575829    2.75671652322116   20.92055341904581
C         4.79965821740713    3.40081760637069   19.02157493204345
H         2.70432080968771   -1.23956802305956   14.93748760589552
H         0.25367284880780   -1.13440031493531   15.93980094906339
H        -0.87496010311596    1.09186286513952   15.10702641690213
H         1.52854931487856    2.10264683061926   11.36121310005989
H        -0.04722430437554    1.36708928462875   11.63263107267658
H         0.07129729998435    3.06335900464873   11.15628412825713
H        -1.58224255579394    2.21924554049219   13.36229796425525
H        -1.00280812659688    3.31270594460755   14.63948733075321
H        -1.22001891276213    3.89887449141729   12.99667806566355
H         2.40320993027592    3.86795414041217   13.24725792522744
H         0.96285692633160    4.76683144632870   12.78192506652485
H         1.22677120670477    4.32851143814237   14.47158193852292
H         3.04134260854708   -1.24846845674206   12.45794047939343
H         2.48410788772605    0.05987223794756   11.42371909847945
H         4.19546789919416   -0.37166591993400   11.44983654379605
H         4.25412515830873    2.77814997773526   13.36686861961956
H         4.92847629071506    1.87979283654293   12.01314517210779
H         3.29228529148383    2.48880378721341   11.90610240939379
H         4.82345206008686    0.83279600838691   14.95843733110350
H         4.64247275855722   -0.81313786082607   14.31420812047994
H         5.65815945087234    0.34273769855001   13.48260099377870
H         1.35740906621331   -1.11732866798797   18.05874227320371
H         3.80433673443626   -1.00551729571046   17.04683611247534
H         4.84472113661145    1.32620622053147   17.68161959643440
H         0.61752403421264    2.84333798227183   20.74414030140727
H        -0.35476787523829    2.95442361392410   19.26621360094892
H        -0.99128503371255    2.15833475694772   20.70046686527949
H         1.03053254694448   -0.91454241550037   20.54070933173509
H         1.52240162138358    0.50694019294853   21.45132113232087
H        -0.16720622809468   -0.00366242771075   21.46433059572502
H        -0.59301349585822   -0.72327858362989   18.66271922820965
H        -1.65555013924933    0.46727863230835   19.37829688256566
H        -0.83610590399430    0.84394302769934   17.86137116338683
H         1.45718833261110    4.12505201596037   19.28135662292859
H         2.85822521018733    5.11896871033745   19.66700352518984
H         2.62252840432786    4.51823202339503   18.02375662978873
H         2.39028880245859    2.58439575418242   21.32722304179050
H         3.98992742961878    1.87869042644353   21.12486169460330
H         3.81471320579694    3.60689618930533   21.44177760200737
H         5.07702977406021    4.31837478689901   19.53665831081261
H         5.50327614855954    2.62763473244882   19.32254108477695
H         4.88800011862489    3.58031605455593   17.95280294193842

