71
CSD_code = TIVMAM | q = 0 | S = 0 | Stoichiometry = C26H42Cl2Zr | MND = 12
Zr        6.23362990415359    1.56535916757982    7.67172614568869
Cl        4.68342876919132    3.21696092624697    8.27423627787598
Cl        7.81780763006286    3.23806531650800    7.23286551584313
C         6.44624982293514    0.96498190955629    5.27165663729898
C         5.25318126561808    1.77591224623342    5.35171913378770
C         4.31194166408672    1.04449855524441    6.13063542229663
C         4.86118587373356   -0.19246596200409    6.50382473910545
C         6.16327791759502   -0.24316904558455    5.97896005215031
C         7.75818440019871    0.98827714966494    4.47249944655971
C         8.26958374819476    2.34318065768346    3.97430920423780
C         7.57063571176085    0.06188060494468    3.25693735419479
C         8.88961222494693    0.42858638469627    5.36248788304791
C         4.81251829609066    3.04265466273540    4.61274635616360
C         4.81922628104899    2.77444361168772    3.09876048222690
C         3.36178612796273    3.41309367336627    4.97216966146727
C         5.65903302413035    4.27000276151757    4.97458334978489
C         6.00786347549689    0.73656420419891   10.00139231185987
C         7.21616947215972    1.52868338639471   10.00042597517212
C         8.14415505851315    0.85976177483519    9.15251301770314
C         7.57204435750987   -0.32402453682206    8.66018532260897
C         6.26871869432023   -0.40146354135790    9.17871730594268
C         4.69565768783446    0.70637114166102   10.79987812291601
C         4.20958834989433    2.01552898504294   11.42867054840005
C         4.86407950184272   -0.33816944927250   11.91858996344202
C         3.55486668755301    0.25825472222731    9.86007162463079
C         7.67986413731225    2.70819095231814   10.85985345084780
C         7.66561593449678    2.29338059687555   12.34033502387680
C         6.85746150951866    3.98102718759311   10.62015223939081
C         9.13795448341341    3.08420473718635   10.53797282731152
H         3.28675615080727    1.32818938208225    6.31566741124873
H         4.32252498234030   -1.01082701597933    6.96238344419829
H         6.77298048316224   -1.13507492761080    5.97047545990583
H         9.19479881465365    2.18470895636091    3.42147179942148
H         7.57503532248844    2.83162987733772    3.30187926976345
H         8.49228276121255    2.99858018699414    4.81160984150292
H         7.27518756952050   -0.93668704819038    3.56899222488751
H         6.79732322541223    0.44877340321655    2.59853921815217
H         8.49828489633468   -0.01301711558182    2.69337528986795
H         8.77201411789638   -0.63259516364811    5.56686132765967
H         9.84411310533173    0.55122918351430    4.85386875443188
H         8.93362616833412    0.98019062448361    6.30647782742925
H         5.80821986063050    2.54137258590928    2.72352614237751
H         4.16695387553228    1.93270684879758    2.87354512779605
H         4.45035061288272    3.64829577805586    2.56582247173848
H         2.66304167145757    2.63895463321812    4.66329508949534
H         3.25402500041510    3.59834997582428    6.03825355376554
H         3.09366352838064    4.32773852956851    4.44717700734913
H         6.71119655303114    4.13089879953647    4.76488972851955
H         5.31155900706869    5.13367170228357    4.40973163214311
H         5.54595767709204    4.49359247896398    6.03653254459556
H         9.17474772419938    1.14074269860079    8.99543591376551
H         8.09571956574723   -1.10342277192019    8.12309561623175
H         5.64233970774591   -1.27826198899769    9.10017799926499
H         4.00150453803042    2.75416864011770   10.65970009932229
H         3.28018520405706    1.82162470471467   11.96288221734015
H         4.91194003087117    2.42197026406306   12.14609673726605
H         3.93525163290224   -0.44840710121809   12.47432570359640
H         5.13830750603735   -1.30738224087301   11.50965998232484
H         5.64559122794757   -0.03389060152815   12.60983791970603
H         3.52194772725102    0.90102978289021    8.97518348614090
H         3.65291957702328   -0.77956860676808    9.55184485265031
H         2.60235333084033    0.34780521346263   10.37919733978415
H         8.30505246239593    1.42418316745235   12.48282019079442
H         8.04581647439387    3.10540451932102   12.95657377593438
H         6.67245655929760    2.03914834536452   12.68988970811275
H         6.97530166367046    4.30448401325890    9.58477609368932
H         5.80272309373132    3.84259571198355   10.81696826322543
H         7.22141606113620    4.77887336447259   11.26567138828565
H         9.25067214176310    3.37175362441457    9.49532920076141
H         9.42299470710341    3.93711080803525   11.15066141608901
H         9.82124166829907    2.26998399706023   10.76842153363454

