49
CSD_code = TIVMOA | q = 0 | S = 0 | Stoichiometry = C25H20MnNO2 | MND = 8
Mn        0.14222057180465    4.29055034254653   10.48289589495218
O        -2.31546051937778    3.25208527972994    9.29323720730993
O         1.72196245625159    4.20841534834346    8.04109087383803
N         1.05629139206741    1.36570273682096   10.69997605804054
C        -1.32343170232494    3.64120008999227    9.75486974738034
C         1.09599309576677    4.12227803737126    9.01395937992749
C         0.52933199506552    2.49063202062052   11.30041049818880
C         0.23921147112502    2.28250776769431   12.67471487762958
C         0.49315879849080    1.11927618997437   13.37189583913218
C         1.06501272886317    0.03779971025640   12.66719573778182
C         1.31635067478612    0.20493192651486   11.34284064517821
C         0.29607212260111    6.45556940565206   10.28383486766951
C        -0.90026359091069    6.11522055838360   10.95543690507472
C        -0.56806780753131    5.44149538504679   12.15561835973129
C         0.83561949310136    5.36406457184216   12.23055477701345
C         1.37199858167020    5.96748078502779   11.07264444888348
C         0.41394767084507    7.37459632778017    9.10533634638260
C         1.36995714539770    1.35999661536581    9.30357208934053
C         2.69925616690262    1.33378389218174    8.90499842773112
C         3.00713867627177    1.29289529967639    7.55680206995909
C         1.99405328211286    1.25925428289903    6.61417509551526
C         0.66905168783151    1.25651685898638    7.01732342638274
C         0.34907115695614    1.30286299947737    8.36255747394668
C         0.17138120423241    0.99970394880319   14.79729536576411
C        -0.36535977406147   -0.18217956137504   15.30569126600826
C        -0.67628254469905   -0.29140711119172   16.64789850065554
C        -0.44638454959011    0.77145433018479   17.50587382538521
C         0.09232251635887    1.94837268521294   17.01262611893826
C         0.39484326688952    2.06418726436310   15.66929766205754
H        -0.24169146299710    3.07990254677334   13.22020259504833
H         1.30291577350973   -0.88878316649394   13.16246345380567
H         1.73635836812029   -0.58496123955435   10.73615733153875
H        -1.88961447674086    6.45952845832109   10.68123862004103
H        -1.26553737564719    5.21461641981572   12.95231701337765
H         1.41498163959723    5.03513795074946   13.08526904298336
H         2.41812914040092    6.19501376577504   10.90898311827057
H         1.28738967910284    7.13329437789919    8.50110776397997
H         0.51536482345158    8.40617417322079    9.45384833985194
H        -0.47123754013012    7.31336732175470    8.47382196342577
H         3.48102249483333    1.36982844355588    9.64919995152740
H         4.04004060823012    1.29222104320201    7.24371599323281
H         2.23804731861551    1.23506793862765    5.56314264543472
H        -0.12075370607093    1.22223587156502    6.28329354009371
H        -0.67882442719690    1.29212613253159    8.69146485337911
H        -0.56515273235605   -1.00745744944386   14.63815415141597
H        -1.10058112467235   -1.20945383040189   17.02717293697380
H        -0.68546206374401    0.68293995720829   18.55510666723889
H         0.27823402199828    2.77815804995457   17.67870872996566
H         0.83227537481465    2.97769524677433   15.29410750260936

