84
CSD_code = TIVREW | q = 1 | S = 0 | Stoichiometry = C40H39N2P2Ru(1+) | MND = 8
Ru        2.90094802611187    4.90243422506337    1.08936857058530
P         5.21735731058851    5.20333723084848    1.01367613491481
P         3.07359978234340    4.96301253414774   -1.21439530559329
N         2.86631400214940   10.05800985827616    1.36202284791807
N        -0.50639951822578    7.78974581237186   -0.38105885614721
C         2.45925273349506    6.66555212815468    0.80103742018934
C         1.84522261627076    7.82862537906061    0.63282228829637
C         2.38987969904980    9.06991428818730    1.03501055085694
C         0.55404564308696    7.83446208683947    0.04913529649542
C         0.92637786940222    4.08862792604231    1.67555191000935
C         1.47681225719769    4.77775368232282    2.80700800757709
C         2.69866388762596    4.13457030411791    3.16203669122421
C         2.85813209399140    2.97384106094579    2.30200003645185
C         1.76341766254267    2.93875918160292    1.40902648962423
C        -0.46373052501441    4.28774345481069    1.15281309274289
H        -0.65145148564136    3.66599180576974    0.28173441861017
H        -0.65321811827782    5.32520117796478    0.87877465767181
H        -1.17785038584755    4.01022641873274    1.93044088732550
C         0.78406011451695    5.85412078907278    3.58229307248142
H         0.16976965922685    5.39105453160933    4.35709247414512
H         0.12897348547136    6.44439647038664    2.94400172205470
H         1.49234647303962    6.52053997032685    4.07133827034731
C         3.46019929723142    4.37410298503853    4.42876002205429
H         2.94969845228198    3.86776590990339    5.25056733291149
H         3.51277853007510    5.43451421274534    4.66990863616555
H         4.47254442007105    3.98028357644794    4.36656485282036
C         3.80215501808073    1.84392925188579    2.58582045122268
H         3.98501317550218    1.23240848049578    1.70442887921277
H         3.36011309602912    1.20356093034949    3.35192733660838
H         4.76040236430851    2.19910247877452    2.96004461503258
C         1.36684322817060    1.79873469225106    0.52249423676717
H         2.17283514824453    1.07864998296474    0.40884665466496
H         1.06976226501513    2.13455079546701   -0.47062101179568
H         0.51452338934805    1.28662096960371    0.97278615065452
C         5.74082038054280    5.35439726659568   -0.76171484105583
H         6.63762537357541    5.97692458382557   -0.82644834175377
H         5.97805353877166    4.35919891838831   -1.14853137616147
C         4.59276250807481    5.95457138903570   -1.56422657417767
H         4.80365794045750    5.94800579043019   -2.63869739483652
H         4.40649553958472    6.98332663876697   -1.23118057390687
C         5.81039463606857    6.76338971349978    1.73770584015612
C         4.95779099158265    7.57223426158951    2.47799120505117
H         3.92716844517835    7.26377968585740    2.62181034970222
C         5.41602240890001    8.75931573757405    3.02169292292204
H         4.74292725779886    9.39058677441959    3.58022679938482
C         6.73486218267756    9.13709116753166    2.83554680174260
H         7.09310671485791   10.06521241169042    3.25242546125091
C         7.59877032329454    8.32075343697552    2.12003132872294
H         8.62994793451345    8.61027378812135    1.98665189950492
C         7.14511078608836    7.13487366990614    1.57592218132207
H         7.82663390224764    6.49008204436004    1.03726256852001
C         6.39663498209631    4.01331519227647    1.72329280694842
C         6.82761855460669    4.22400232710682    3.03388120594340
H         6.50368558946358    5.10761826259651    3.56720147591396
C         7.68329353397927    3.32367888898692    3.64095841915972
H         8.01692358867922    3.50018155400499    4.65216225239404
C         8.11346252557534    2.20082572559699    2.95160923870259
H         8.78334427674524    1.49981089418926    3.42437430255007
C         7.68295405787036    1.98187708365941    1.65324029338352
H         8.01871768128264    1.10981669758661    1.11293621954716
C         6.82270983368954    2.87636765129234    1.04111936693848
H         6.49690028729938    2.68316135354184    0.02974456590307
C         1.75387742731918    5.73699378284871   -2.17619675635981
C         1.84944068377011    7.00452267200957   -2.74215416156010
H         2.76441808934935    7.57396277484400   -2.66976412692400
C         0.75984216857555    7.54021020340661   -3.40691745802684
H         0.83523418005781    8.52274580947030   -3.84693962442944
C        -0.42497268800349    6.82949335359465   -3.49792371372617
H        -1.27330614582343    7.26087958714114   -4.00517874673987
C        -0.52450289551001    5.56665033731746   -2.93441396434362
H        -1.44795718069020    5.01281522563374   -3.00537168873765
C         0.56040384364823    5.02271548445046   -2.27727602891765
H         0.50325865303286    4.03373177345696   -1.83979078034727
C         3.43159878862621    3.41968041500158   -2.09987272868476
C         3.18148005067547    3.28737093593330   -3.46244353525142
H         2.71693724425327    4.09719051911842   -4.00697402093998
C         3.52708158779944    2.11360837878028   -4.10768757228324
H         3.33212167356368    2.00690305176013   -5.16365639683159
C         4.12199838945985    1.07678874650731   -3.40504046120392
H         4.38707652781789    0.16380861286593   -3.91521795644570
C         4.37459191405963    1.20836102008532   -2.04862554068294
H         4.83852284711002    0.39940697902394   -1.50336215643565
C         4.02641732731939    2.37732135969443   -1.39762756519377
H         4.20635007062648    2.49962148507137   -0.33451225380675

