55
CSD_code = TIVVEB | q = 0 | S = 0 | Stoichiometry = C19H32IOPPd | MND = 3
I         9.96831376416173    7.87106778779387    2.21667156728931
Pd        8.35127968485669    6.12855328666332    3.11824370116213
P         6.77909410754433    5.23561078522147    4.52986961950219
O         9.79652650977114    3.83995146020026    2.91307035111438
C         8.72158849976787    4.45841973639278    0.85278913090061
C         5.67044164253112    7.69664440637760    3.75251798361387
H         5.99555914227375    8.35470096580179    4.55207095960890
H         4.84222407255471    8.19316920546323    3.24712468627517
H         6.48908144434272    7.60311644960517    3.01714529884581
C         9.32911566793567    3.46658633761873    0.08152751599105
H        10.04084020718547    2.80365094784070    0.55145799587865
C         7.74339437264292    7.27581857983730    6.17613243399190
H         8.15734578068944    7.63794996782776    5.22292946610550
H         8.43031117653343    7.58702437890601    6.96348945664763
H         6.79061724714969    7.76069002980638    6.37024178672495
C         7.80225324840588    5.33009655935091    0.25915188897800
H         7.32652313908826    6.12309435241254    0.85600096921160
C         5.21388843353958    6.31581695717825    4.25631230228426
C         7.50221884151104    5.20705369926389   -1.08255887640806
H         6.79794868181288    5.88423892260063   -1.54239898779833
C         9.08185857419036    4.55599132467471    2.27825878359887
C         8.11301340736129    4.22043607854280   -1.84348030413436
H         7.88013338464682    4.13175209476992   -2.89406670772987
C         6.27996464494148    3.39081851273891    4.59671594706167
C         7.63691629217642    5.74464878195070    6.17130116309171
C         4.43089768298543    5.69002488219425    3.09629623275755
H         5.09934241593715    5.46410380841303    2.26252409050643
H         3.67833131324273    6.39388633621451    2.74120996946206
H         3.90938658817435    4.78663856419843    3.39596829514993
C         7.47749864290105    2.59186829794155    5.12224646228003
H         8.38130163702012    2.83678763878110    4.56690389521223
H         7.28500862564316    1.52769255648858    4.98693410317647
H         7.64186302329079    2.75539317920909    6.18293136675754
C         6.04775876338593    2.91530920981692    3.15456027614471
H         5.06326023062309    3.17057713583397    2.77871793908906
H         6.14064800808388    1.83134254762347    3.10940762544032
H         6.79766498742490    3.33800896187436    2.48290785810732
C         5.05840268738493    3.07487777851898    5.45721647379410
H         5.17650523523051    3.44232139690691    6.47252418651666
H         4.93300978085225    1.99322163323809    5.50511898016155
H         4.14539749229889    3.48918661940459    5.03877671874884
C         9.09364292043807    5.25103475672827    6.10161232682002
H         9.18895622481782    4.17316832623763    6.16329308042000
H         9.65314815811303    5.67772596920444    6.93436677171030
H         9.57951690523340    5.59130001156686    5.16807620972990
C         6.97753953466894    5.27355911366725    7.46519299911398
H         5.93445385472285    5.57399887436438    7.51975743356912
H         7.49885841448004    5.72103799901055    8.31158584255158
H         7.03658688047377    4.19459026143097    7.57982830872274
C         4.29167738436423    6.49160337349240    5.46024283155991
H         3.95609379531308    5.53809847500222    5.85687168978887
H         3.41086634407916    7.05492859017607    5.15118462538093
H         4.77238483668021    7.04991705338778    6.25921545426341
C         9.02401226012104    3.35374083298940   -1.26150634078970
H         9.50133340437777    2.59005420736773   -1.85698383773251

