119
CSD_code = TIVVID | q = 0 | S = 0 | Stoichiometry = C41H73O2P2Rh | MND = 4
Rh        0.67494496100293    0.93981931222263   14.58069140840410
P         2.08208410543963    2.69184236847604   14.21707807866793
P         1.47967595550695   -0.81666965864425   13.37713456947683
O        -0.87453420140310   -0.36609200680457   15.05560548554010
O        -0.28353359852586    2.25085788470041   15.88178685680513
C        -2.82314541877923   -1.36147291181191   15.95628993712460
C        -1.85416296586355   -0.19860542342051   15.82602632707892
C        -2.13758974938091    0.94582781351597   16.57282019279807
C        -1.33577601982606    2.08788368090944   16.55069103778727
C        -1.77588648811975    3.25363101709864   17.41992653118319
C         2.12751106358573   -2.17022506064230   14.50168407942645
C         1.10514165861605   -2.58481049244742   15.55647000940815
C         1.69146388950114   -3.62009264179836   16.51242494181891
C         2.92411507594436   -3.06349349038520   17.21483427835543
C         3.96082011825635   -2.64308759659862   16.18029677014555
C         3.36785587357647   -1.62461134615913   15.21100320588034
C         0.01521485528715   -1.64770214530526   12.56104662065239
C         0.22453755502677   -2.86250588596329   11.66405330129782
C        -1.13497701988270   -3.47842190036199   11.32988406609075
C        -2.03540462488506   -2.45613000437293   10.64120422458361
C        -2.21389728133536   -1.21724869889368   11.51561098706416
C        -0.85608449983658   -0.60850644899081   11.85209182866542
C         2.85965620657322   -0.76071518835762   12.09268860393390
C         3.55834627364961   -2.05350542466958   11.66960642861394
C         4.73464023681788   -1.72582349436281   10.74715463905437
C         4.27425875181096   -0.95170169897174    9.51630706912150
C         3.55551406914341    0.32689519930482    9.93447325039733
C         2.38255768705586   -0.01151636328595   10.85028854297680
C         3.75428061072355    2.62872098397340   13.34759631392181
C         4.38992434543495    3.91821428102994   12.82650487686343
C         5.65257542666112    3.58460613260996   12.02876677033834
C         6.65610187868915    2.81126959792414   12.87802377165751
C         6.01844083629325    1.53651422397728   13.42097339404557
C         4.76302224046277    1.88128897430889   14.21723049653552
C         2.36289444811255    3.53066766051145   15.86595815414451
C         3.27795094848363    4.74610888340910   15.96370529452395
C         3.13380555433559    5.36955869003428   17.35290364688461
C         3.48033184433268    4.35367549327396   18.43828405581947
C         2.59897575077027    3.11260835719899   18.31857454419880
C         2.73939457454485    2.49705933995757   16.92973505976853
C         1.24055475440449    4.04224772094618   13.22458132972052
C        -0.09754710402912    4.45496481066200   13.83205303705531
C        -0.80384577174216    5.48680282555368   12.95694506560509
C        -1.04953611003592    4.92715466762939   11.56089278088366
C         0.27470646170340    4.51005787861654   10.93312134128555
C         0.99054575997564    3.49427611426856   11.81872223335858
H        -2.49323298767683   -2.19287163946864   15.33805991325872
H        -2.87648722801030   -1.68688219354840   16.99300974589103
H        -3.81852028465058   -1.05331227974012   15.64305829048620
H        -3.01787480373421    0.94772722271794   17.19658070498343
H        -1.09159615611589    4.08967546995504   17.29690633007839
H        -2.77899370393276    3.56881721558270   17.14109535771650
H        -1.79032674675985    2.95250006044249   18.46547498564552
H         2.39017478705322   -3.05019299949911   13.90405052135714
H         0.21573793881734   -3.00216455972531   15.08330275750191
H         0.80440553159263   -1.69790817714672   16.12004249122176
H         1.96747396509533   -4.51882308056758   15.95362675664972
H         0.93843218099354   -3.90559671777741   17.25049384293418
H         3.34620773898169   -3.81286459906361   17.88840386436834
H         2.63776358288233   -2.19551136470880   17.81262958973286
H         4.29383176005596   -3.52316536368216   15.62315634042905
H         4.83426448643114   -2.21378418122352   16.67670905801893
H         3.06669720032853   -0.72490919467438   15.76063208432486
H         4.13065265222068   -1.33976090940333   14.48402247200346
H        -0.56048714729342   -1.97529171968216   13.43334559368390
H         0.84888219022084   -3.60725896319069   12.16193210334372
H         0.70958832684910   -2.57180321836796   10.73091103533296
H        -1.61451161564676   -3.82023457383798   12.25040548611019
H        -0.99913377542244   -4.34862836681135   10.68261402134354
H        -3.00768059924416   -2.90488201844545   10.42495807187311
H        -1.58546920960438   -2.16336153694948    9.68900935064493
H        -2.72497674845031   -1.49479405292951   12.44007453177164
H        -2.83642107216903   -0.48441450978521   10.99685338902282
H        -0.38201849640008   -0.26410683709142   10.93214219223631
H        -0.98120965822078    0.25724972907474   12.51603950127667
H         3.61343502363638   -0.13502896789437   12.58442522604442
H         2.86845434748323   -2.70882656318361   11.14009381275917
H         3.94289322785608   -2.59316934899909   12.53481089497448
H         5.22559061733252   -2.65215161218972   10.43951908148442
H         5.46915338724013   -1.12960216192512   11.29487852136855
H         3.59363704336725   -1.57442904356106    8.93069685631764
H         5.13261735064282   -0.71191350291908    8.88463996346312
H         3.19786579580266    0.86193110085413    9.05146058388848
H         4.25821497803105    0.98033717877607   10.45710852269860
H         1.85829803741944    0.89586427570925   11.15645529911347
H         1.68378786281059   -0.63467452947101   10.29127906566993
H         3.54285451868799    1.99998159207347   12.47506353443373
H         4.65911812513718    4.57572305292828   13.65170691494192
H         3.70479597921482    4.45729191728030   12.17250560185964
H         6.10929862175449    4.50851114967232   11.66604432383590
H         5.38144910723807    2.98589207471122   11.15526682668243
H         6.98170658391630    3.43675306109737   13.71272851319388
H         7.53806095443259    2.56665685465897   12.28169539303059
H         6.72935480462574    1.00326499155345   14.05669846842449
H         5.76048536548874    0.87939729637482   12.58696315520711
H         4.29681699299101    0.97681740079526   14.61304828703748
H         5.05662320606518    2.50814687144590   15.05980499426874
H         1.34837772377053    3.85964117317044   16.11522879843180
H         3.01964969043050    5.48664508860396   15.20396643496647
H         4.32007533243827    4.45478443483531   15.82333478572353
H         2.10498649389199    5.71050241726827   17.49233893100659
H         3.78760703408410    6.24127292973020   17.43837369631883
H         3.35538995957952    4.80760664796930   19.42407882138403
H         4.52896850659674    4.06217201099089   18.33729339318940
H         1.55602622539964    3.38912398558593   18.48776292552044
H         2.87965291713642    2.38409585793097   19.08290312141284
H         3.76566074300179    2.15349055500058   16.79427597187906
H         2.07337476024339    1.62979106799253   16.82884464418766
H         1.89055868201216    4.92304052461176   13.17693351098094
H         0.04814196282208    4.87438023811388   14.82800825691760
H        -0.72707893322693    3.56642804494649   13.92759891458986
H        -0.18731636586180    6.38713879638567   12.88321840444354
H        -1.75280981845240    5.77037897449661   13.41776846291988
H        -1.54458497028257    5.67383684509091   10.93576530211376
H        -1.70588813105960    4.05707644823778   11.63115313795864
H         0.90891544752095    5.39184306933192   10.80635004041115
H         0.10253660673337    4.07939427079765    9.94392339417103
H         0.37322877909133    2.59370503316337   11.91878407177449
H         1.93212039680165    3.21071582760923   11.34491531682827

