40
CSD_code = TIVXAX | q = 0 | S = 0 | Stoichiometry = C17H18O4W | MND = 9
W         1.40180777324989    1.62199521555829    3.26390705193399
C         1.70544685150007    3.43294216340654    3.96433757313208
C         0.41619404605319    2.85026640397646    2.09207940603452
C         3.21517386733790    2.18297546796271    2.61333213752200
C         2.70050567740942    1.24312927300946    1.40760165219899
C         2.24118469162469    1.77576130872972    0.05595123540540
C         3.45408991410220   -0.16422960546207   -0.30034373767777
C         2.62864854920007   -1.43540638222604   -0.57450419909002
C         3.40014760039584   -2.71978833803112   -0.29339945552884
C         3.83803646461078   -2.89258395240090    1.16134465828166
C         4.91245326814767   -1.89850708991669    1.61019177084260
C         4.35513196740281   -0.57024862418415    2.12215264307921
C         3.47271267478087    0.15427753857601    1.16835696984989
C        -0.23938662559994   -0.05256970363017    3.46015789310201
C         1.01186140903019   -0.70074481691630    3.47697481722168
C         1.72056341880362   -0.28395830001487    4.63483660617947
C         0.90968353671179    0.63911676798806    5.32474040198202
C        -0.30208875609872    0.80673634739810    4.58739808418745
O         1.90084914341719    4.50682079768790    4.31724366468331
O        -0.23824344927678    3.60635452548060    1.52431597548105
O         4.26538916645195    2.72723956799749    2.58821829014935
O         2.87985965287682    0.97408669352043   -0.92134228230189
H         2.54512956413204    2.82041710662509   -0.08821414780729
H         1.14957085216625    1.70682150181803   -0.06668053306071
H         4.46173164999607   -0.29130130363404   -0.71517542917195
H         2.33960702749933   -1.40808143240685   -1.62641893675338
H         1.71425056140461   -1.39983177787153    0.02282659899676
H         2.76447418903482   -3.56514068200538   -0.56681296615606
H         4.28373506752541   -2.75385187682880   -0.93506514138516
H         4.23661772622993   -3.90397036562060    1.26842665648252
H         2.96996347589544   -2.81798851071275    1.81970960774237
H         5.48922277612497   -2.34300021962255    2.42445562473255
H         5.60462564014260   -1.72075046946606    0.78566898184781
H         5.19320283476548    0.10225263672778    2.34762150624204
H         3.83108782888598   -0.73587298073267    3.06560750750062
H        -1.05185605309567   -0.25902206344506    2.77602159283072
H         1.30618121291697   -1.50399200625453    2.81281647803656
H         2.63206829577563   -0.72215606144504    5.01760453550577
H         1.10888679137306    1.05063335018737    6.30630894043654
H        -1.18912028290498    1.31376989618132    4.94594796731649

