69
CSD_code = TIWHAJ | q = 0 | S = 0 | Stoichiometry = C35H26IN3O2PdS | MND = 4
Pd        0.90247438875348    7.30458320103074    2.86608361115070
I        -0.36363097387432    7.08226513032167    5.06001503030784
S         2.20126475616655    5.72679564657504    1.38600960330459
O         1.09316809835197    5.28473405795579    2.23438013881437
O         2.49658934128656    4.94524152441586    0.22225537154451
N        -0.40967113420240    9.83545758126503    2.29281740161827
N         1.72100554869329   10.05906714422479    2.68944226225084
N         1.87242315844087    7.25808661166785    1.09258168629043
C         0.69381436663481    9.19632868857320    2.71590491444449
C         1.28657854501170   11.28806475759210    2.24302749632808
C         1.94186209775944   12.48813516491340    2.02715985046205
H         2.99974845307535   12.58813690207484    2.20880924600414
C         1.17820697324501   13.54427876905329    1.56581149935561
H         1.65097316434650   14.49654080570201    1.38283435971094
C        -0.18893937678262   13.41001610472507    1.33271070104810
H        -0.74637584465321   14.26283714297394    0.97768753179294
C        -0.84934341659566   12.21340924040356    1.54377695317851
H        -1.90798580550461   12.11812187370041    1.36332253578506
C        -0.09287830339758   11.14540845077325    1.99942305039701
C        -1.69096974687863    9.18961709554530    2.13804796550998
H        -1.52516964984753    8.09917027284422    2.04604715104844
H        -2.18309381462410    9.55917392942063    1.23879686907015
H        -2.32504501858390    9.37885628035563    3.00821338365811
C         3.03851269534136    9.63734674511077    3.02459426619951
C         3.44801536812199    9.73438669646361    4.36884150859110
H         2.74196956580346   10.09680291234166    5.10159026387402
C         4.72462538476768    9.39696095307024    4.71248112801451
H         5.05823008854190    9.49053288453049    5.73493468977376
C         5.63100527438865    8.92538927733874    3.73830949194501
C         6.96466652896646    8.60775346436633    4.06694149772952
H         7.29243880860501    8.75244916201777    5.08611275029005
C         7.82604929941182    8.13235073217828    3.11909295594569
H         8.84906512840455    7.90185254537482    3.37707074819657
C         7.38360731361188    7.93268308271589    1.80380229132745
H         8.06639687523553    7.53567939091672    1.06766302338632
C         6.09983960576692    8.24080679582989    1.44962144107249
H         5.76413445504954    8.08672150911939    0.43538862612904
C         5.19665845342468    8.76766417484631    2.39603699428311
C         3.87228895922192    9.15306298504356    2.03906260178154
C         3.44765610099536    9.05031256874999    0.62345971690262
C         4.01619646683154    9.93718382028753   -0.32801263173123
C         4.84668345382145   11.01287886129098    0.05578433964063
H         5.06069010466799   11.16250919989001    1.10436806533722
C         5.37721266861721   11.85830752112703   -0.87812132408415
H         6.00933435461067   12.67778555573248   -0.56859736133401
C         5.10770199453359   11.67318268362025   -2.24166483307974
H         5.53670200567395   12.34934788649016   -2.96612165314561
C         4.30601714611589   10.64208121248433   -2.64537127400823
H         4.08961976859649   10.49080616315687   -3.69328190925573
C         3.74091126031127    9.75498609678065   -1.70805548337591
C         2.91647431608050    8.67886351855951   -2.10338658204920
H         2.73989080714602    8.51842617302093   -3.15725905349830
C         2.33729632926149    7.86748610020478   -1.17667097311492
H         1.69499785300058    7.04796202739534   -1.46157117408291
C         2.56588524246881    8.06117942261295    0.20624999802470
C         3.65115297556030    5.69722736525652    2.45848906557520
C         3.59401966718545    6.14360472246150    3.76929317679724
H         2.67190387921382    6.57125276055196    4.19711114691426
C         4.70831166057666    6.01816217691459    4.58096363488191
H         4.65497296399122    6.34633097339174    5.60858854702383
C         5.88504077220237    5.45836466337590    4.09566504349734
C         5.93033127295236    5.04078019534560    2.76995394628973
H         6.83882200166365    4.60857087478021    2.37719307182665
C         4.81834924058267    5.15457789006859    1.95582530608176
H         4.82632416946779    4.81087917853287    0.93317482071519
C         7.06686763109170    5.26933467366393    4.99385560794361
H         7.05546823104240    5.98742959850158    5.80916971332803
H         7.99585744785724    5.37251072687848    4.43909791844513
H         7.04199860239671    4.26830570149387    5.42526824192805

