52
CSD_code = TIWLEQ | q = 0 | S = 0 | Stoichiometry = C20H24N2O5W | MND = 6
W        -0.92740838018920    2.61385713915635    0.75294825716779
O        -2.43694308583977   -0.00694434319282   -0.06058550623194
O         0.51566679125603    0.88035844146604    2.93500573074175
O        -3.17337970718637    3.01531112372042    2.90790892528112
O        -2.55547666295234    4.02608307917848   -1.52823117756267
O         1.13761938198112    1.89327175864898   -1.49775259719625
N        -0.38222531723644    5.71010135087749    1.52968038652440
N         1.47345400333581    4.63751926668056    1.54564290991849
C         0.14816175995207    4.48304309038721    1.32795979095870
C        -1.77943147542883    6.06894675925324    1.41976815220682
C        -2.33125276911802    6.57225311174938    2.75543429571285
C        -3.82419101460569    6.85419197137166    2.61424236625926
C        -4.07380748736232    7.87759506670622    1.51013255262251
C        -3.49590355670368    7.39164982867308    0.18401318755562
C        -2.00236945779591    7.11093916358477    0.32148312008494
C         0.59306055455630    6.61037105511638    1.86584243473087
C         1.76240868113504    5.93442694141638    1.87610776913058
C         2.48289213420674    3.60488235023726    1.45772953843013
C         3.16748465398146    3.38038017238954    2.80784049073929
C         4.15837838027156    2.22616142459776    2.68893050174965
C         5.19200176839981    2.51744034369830    1.60475065345416
C         4.50947608995331    2.77333456427962    0.26407126744618
C         3.51899967848266    3.92838012346648    0.37911365976119
C        -1.88526410480977    0.95028946139042    0.23774112838067
C         0.03307011257573    1.55860697553127    2.14863166568880
C        -2.33676187854717    2.92936592159227    2.13073186656721
C        -1.94564872321025    3.56892340412185   -0.67358990134482
C         0.42584726376488    2.19891478337348   -0.65438517315611
H        -2.32036683033583    5.15718489381334    1.14482943387180
H        -1.81408945030351    7.48656239912485    3.05504138215648
H        -2.16133801306957    5.81775612183635    3.52649046478336
H        -4.21949485650156    7.22351909492602    3.56198934818268
H        -4.34402466034754    5.92449778096744    2.37450665011903
H        -3.60687954087984    8.82713846705610    1.78317960696677
H        -5.14556656439833    8.05206469014549    1.40397400500050
H        -3.65889960668024    8.14177698095131   -0.59161075940938
H        -4.00628460466428    6.47662453001829   -0.12306002120369
H        -1.47820842967446    8.03657219375235    0.56980208175984
H        -1.60083861805549    6.73605940662898   -0.62236305835544
H         0.39298188910895    7.64144398380763    2.06866191028391
H         2.75294677128302    6.27713747240333    2.08978934019308
H         1.96754308824300    2.68089078105396    1.17461031425600
H         3.69618965722880    4.28525682645468    3.11588902935214
H         2.41343280688212    3.15345486744603    3.56451574761641
H         4.65636643612435    2.06924353788502    3.64718363656205
H         3.61613475225233    1.31179220242470    2.44005086050500
H         5.77688145125526    3.39609884982507    1.88773968161690
H         5.87941836990159    1.67504444097931    1.51417496856171
H         5.25651536102304    3.00450577458835   -0.49708986435816
H         3.97708755285029    1.87403645570452   -0.05195091125098
H         4.05536327230934    4.84464636387611    0.63587555925214
H         3.01277213356911    4.08733755484786   -0.57539570207458

