61
CSD_code = TIWLET | q = 0 | S = 0 | Stoichiometry = C32H19N4O5Re | MND = 6
C         9.27731918646220    9.54510140157817   16.80933613983551
C         9.18845845768403    9.07091869161043   15.48617862357844
C         8.94691995750983    9.56403413786143   13.26632396399154
H         8.83154903319092   10.31629117120127   12.49654842955632
C         8.96006233047957    8.20643537939024   12.93373056162623
H         8.85503657107410    7.92228418539381   11.89847535979608
C         9.10391817906525    7.25200454251265   13.91489740924075
H         9.12147026775542    6.19777400547137   13.68657736791330
C         9.22208354642069    7.66947076457966   15.25022269913043
C         9.36646723047901    6.83364806002475   16.38113204823554
C         9.43069281093125    5.37220450083374   16.43513950934041
C         9.57631984945701    6.16393599765055   18.60137425160159
C         9.45480561038332    7.32542663490107   17.68455723387989
C         9.40843041680272    8.68896795058052   17.94250696528066
C         9.44888097577951    9.58358380741764   19.05642896721775
C         9.56731022121682    9.40741144048580   20.43008920650617
H         9.65408153616804    8.41310809008047   20.84011603496468
C         9.56745481618412   10.52888242870202   21.23352009890155
H         9.65775265038556   10.41907906719687   22.30405172506282
C         9.44668720587693   11.81018816536185   20.69096607442718
H         9.44413433800977   12.66336450149595   21.35367923193002
C         9.32763657907275   12.01140651070328   19.33105304152796
H         9.22241230368323   13.00167248716738   18.91155759707114
C         9.33133898029164   10.89369079492901   18.50369011341788
C         9.65378704109857    3.68963217382625   18.27859514577433
H         9.15132952995641    3.04472617204647   17.55306866135593
H         9.14269026997591    3.64414407503973   19.24371939628131
C        11.10211411089529    3.29934585206187   18.42549052526738
C        11.79963643288755    2.78699807107711   17.33942266877362
H        11.28874299110537    2.64754675337173   16.39777494910202
C        13.13899300719568    2.46192078316655   17.46227079476342
H        13.67458271466784    2.05891225171323   16.61504762832519
C        13.79136989065464    2.65076364189248   18.66907203684561
H        14.83620835920820    2.39342648921819   18.76544530100409
C        13.10268447013917    3.17198715675894   19.75124886498865
H        13.60989564014351    3.32501381519414   20.69259954513793
C        11.76316707833503    3.49769276473317   19.63014606486720
H        11.22610074967322    3.91417414054953   20.46940178210955
C        12.09183918620076   11.56121437868617   16.60964459866300
H        11.60227896008348   12.08524241437753   17.42049459421137
C        13.34507449893384   11.00669746346878   16.79948952560061
H        13.82752555817616   11.09405278778073   17.75972980111660
C        13.95290948390814   10.34204980987712   15.74694369547714
H        14.92501970963703    9.88830809559417   15.86371338822124
C        13.28070429334156   10.28267869985978   14.53673754485389
H        13.71243383565228    9.78929369429217   13.68051405074095
C        12.03103196208953   10.86705685722445   14.43592419421163
H        11.49543334079947   10.83987838078805   13.49497047025981
C         9.60630906766312   13.76619131820452   16.24253769609691
C         9.47452050804830   12.87738266216320   13.59910766540700
C         7.34388009391968   12.33073092120583   15.37094221266475
N         9.23714242629101   10.84464660774071   17.13344461775807
N         9.06712672986386    9.99446053054191   14.50943534587078
N         9.53952200300571    5.04977681672906   17.78736697969818
N        11.43038363006413   11.48336760415191   15.45394836521518
O         9.39505934769665    4.55547784729542   15.54213000718219
O         9.67700468795165    6.14070655737262   19.80424851575069
O         9.82823376645412   14.76290656891762   16.76417348188779
O         9.61064308696195   13.31377476389788   12.54700365505495
O         6.20499030243656   12.43253777393168   15.39870668490825
Re        9.27580818053425   12.06339858814880   15.35743689054465

