60
CSD_code = TIWLUI | q = 0 | S = 0 | Stoichiometry = C22H17BClF9N6NiO3 | MND = 5
Ni        6.87659727991356    6.65308731400135    4.22479251011777
Cl        0.84735943132556    4.95599346004753   -0.25447668791555
F         4.24264498890822    7.27200384849930    7.01428154953075
F         5.61323749714634    5.70489891279887    6.40940464518061
F         6.51161776168702    7.29595505826185    0.31300277943062
F         7.22538567641802    3.97808812410748    4.65691093843109
F         8.98405334456664    2.72600169160712    4.65058331203442
F         8.10923089576415    3.33188300318560    2.79168043993098
F         5.56586209352083    6.39798773854788    8.45064989678460
F         5.02684779267616    8.48556917736799    1.31148818489187
F         6.13486678263617    9.31120902642941   -0.33016359769427
O         6.35804813254923    5.59995350675529    2.73665878074808
N         9.64436535925233    7.08096764294736    4.34962216487726
O         4.40971198115114    6.53370598196192    3.24656054695412
N         7.64933735694921    8.41351673445390    2.79303297745785
O         5.14439138050950    7.20384975859143    4.23515416001160
N         8.24003944932133    8.56229682567479    5.74477752393377
N         8.67641364803790    6.17461890492941    4.24860632534732
C         4.45455885593113    5.05601768647526    1.42234844931680
C         9.99732659701393   11.17660550070242    2.94805864070820
H         9.78707708153086   11.64265041076797    3.90860647023631
H        10.04136176918559   11.94897168317622    2.18594173643332
H        10.96846304214658   10.69031308496204    3.01361601369477
N         8.64471455115918    9.10881941810078    3.34220743794170
C         6.24939537072546    8.53861465988602    0.76457779211942
N         7.25427074540949    7.67124421814472    5.72230117773502
C         8.39605037982452    3.76221422666023    4.02859991529186
C         6.56076055122925    7.79006893034145    6.84989826130940
C         2.50804012236355    4.65100392194630    0.09776596100014
C         7.30171898703253    9.05096255278825    1.68207664627106
C         3.11332855038645    5.31456570101594    1.15015873482619
H         2.56644805175860    6.02610499643957    1.74759812033946
C         8.08829218992915   10.19477273844061    1.50885994027321
H         8.03498655062520   10.90143741978634    0.70760348364473
C        10.84448298493122    6.48639790784674    4.21232302641844
C         9.24305898206056    4.98614727571691    4.06644406483575
C        12.13686593264179    7.21448496948756    4.25296606387356
H        12.17287179444859    7.96830399548029    3.46930765764991
H        12.95346603320610    6.51387313966812    4.10657100866453
H        12.26741117046057    7.71406556262951    5.21064917235579
C         7.10895063847886    8.80979855503491    7.62614286540819
H         6.77589980401149    9.14372485624393    8.58640761377776
C        10.62933821553629    5.12880193209218    4.03205811641172
H        11.35790837775319    4.35636317457892    3.90174861827820
C         9.12343075752421   10.37531295599260    7.21827534481512
H        10.13968399941727    9.99508429218486    7.29886801073563
H         8.83860683460417   10.82225837244766    8.16584308972130
H         9.10871425489623   11.14190022508976    6.44696773974172
C         5.48299523085679    6.81007673291926    7.16883089813911
C         8.17832796387371    9.28208440691680    6.88097880505010
C         8.93858080176332   10.19591416782943    2.59859376062093
C         4.54953837952597    3.49913932570450   -0.39849752992865
H         5.10097550180640    2.79495127356140   -1.00248110865916
C         5.14291610006479    5.75135856257570    2.52226289040523
C         5.17538347004551    4.14949612945450    0.64850904215597
H         6.21329440282200    3.97153673197298    0.88094034796312
C         3.21575626801406    3.74422847409844   -0.67992482937516
H         2.72271886260938    3.23939107018256   -1.49594193414350
B         9.29946230734869    8.56823137091339    4.61737577565712
H        10.25245668271970    9.18172067957600    4.92869625823390

