84
CSD_code = TIWLUH | q = 1 | S = 0 | Stoichiometry = C32H44MoN7(1+) | MND = 10
Mo        0.36830951299987    2.40511072492030    3.09768321673438
N         0.18315105544790    4.06422119475585    4.57007522283068
N        -1.65697271822235    2.09838396581284    3.87481079065664
N         1.72860344845263    5.76456794441102    4.01759537237262
N         1.55167039038502    5.30808984525887    6.15053314782237
N        -2.65365927926205    0.25456990893007    2.78462978970234
N        -2.85063162058473    0.27922403036719    4.96026224521765
N        -0.93873231736239    4.00210955398315    0.74618158810361
C        -0.78869819535277    3.63623651752537    5.54910010699581
H        -1.07010588094117    4.45869979428246    6.21679812270796
H        -0.41947756326187    2.79004559048065    6.14954829650373
C        -2.01932101747427    3.16884624374916    4.77803159831268
H        -2.82601738427715    2.89163156748533    5.46295702961291
H        -2.36467094867375    4.01129702372651    4.16132229033536
C         1.08928228238563    4.95300247179793    4.90659919831311
C         2.56684220507782    6.63771644235363    4.69938976914487
C         2.45328323779093    6.36537505147353    6.01770524890971
C         3.38741597178732    7.64529948989256    3.98221028258506
H         3.92162818585636    8.26544629345057    4.69462458608146
H         2.76049033776804    8.28550177331214    3.36352137806598
H         4.11898348424073    7.16030643515835    3.33659112259555
C         3.09830069786717    7.00881537638064    7.19092028516951
H         3.58340685314081    7.92875481691906    6.88005920239057
H         3.85667082407895    6.36343687970935    7.63595956790396
H         2.35976314382539    7.25012085959502    7.95334424624024
C         1.49147229694645    5.85162057143198    2.60482868320265
H         2.44017138231420    5.90512504907879    2.07148289137005
H         0.90580219889661    6.74379277457881    2.37101563270947
H         0.94294310921208    4.96512850917311    2.28894390331338
C         1.36364667716889    4.62283647802940    7.40567223376646
H         0.49749338484067    5.00214498598310    7.95266896038469
H         2.24984326393191    4.77191845409071    8.01969652159107
H         1.24671876330601    3.55550284992273    7.24089937368627
C        -2.32862153581859    0.96799662966804    3.89752834316965
C        -3.37426056056068   -0.87383356134015    3.14614805186764
C        -3.50796394745023   -0.85563257282501    4.49305997453537
C        -3.85477654264743   -1.84489077387690    2.13207802168040
H        -4.39442248032229   -2.65325419038414    2.61446645191960
H        -3.01789274304723   -2.27165098425341    1.58051005420914
H        -4.51837901082144   -1.36090096038958    1.41672593870808
C        -4.20341288162642   -1.79333693970477    5.41050241125551
H        -4.80926365049863   -2.48736877428581    4.83673268433140
H        -4.85384477706273   -1.24994225231364    6.09359606127357
H        -3.49317222252708   -2.37283371978191    6.00143657575943
C        -2.45371355037263    0.67307910881519    1.42565376565186
H        -1.83481783116044    1.56946689066361    1.42917777338854
H        -3.41578138805948    0.89401046315138    0.95891410471103
H        -1.96048564717260   -0.11310946818756    0.85400105970679
C        -2.60708646211766    0.52395360131178    6.35688481537405
H        -1.68457158668773    1.08964374044347    6.47277770663432
H        -2.49654074612953   -0.42999301272589    6.87187872370303
H        -3.42840985174127    1.07464322653242    6.82274364249224
C         0.57574549298520    0.12554085690141    3.06125472623989
H        -0.11993902597543   -0.71026555335522    3.08300677592555
C         0.98792329471567    0.53908065486263    1.78450240354661
H         0.54607210691784    0.01997331478351    0.93986709858927
C         1.82919008127788    1.62561431792597    1.46789578959172
H         1.94472963452851    1.82781787808156    0.40551922248059
C         2.58961493166631    2.44804551599238    2.32383953402739
H         3.21031466175686    3.19812507363795    1.84345328190953
C         2.57303386994310    2.45369839984280    3.72744721266874
H         3.20941697359522    3.20040773508379    4.19917728263020
C         1.96584821814840    1.53378285767533    4.62496000649186
H         2.19095662872331    1.69510836776709    5.67709545984487
C         1.07709970162322    0.51673617371675    4.33593047873272
H         0.67882312209581   -0.03736156184393    5.18287220148085
C        -0.50299682099325    3.46113415423073    1.70207438521656
C        -1.59881453668392    4.80395420491805   -0.12637881406959
C        -1.28894599463848    4.71000772752872   -1.49052700371687
C        -1.96312525171923    5.53459368241779   -2.37519385161662
H        -1.73912683329556    5.47696497685349   -3.42964074798050
C        -2.91792441482230    6.42905540541107   -1.92053317312434
H        -3.43453923182769    7.06538539322699   -2.62220327985980
C        -3.21342076884620    6.51138366573466   -0.56994239229703
H        -3.95950497040103    7.21138011884432   -0.22470964380765
C        -2.56389834099070    5.70442079719802    0.34930750884427
C        -0.24827260539769    3.73593850633802   -1.94698533817888
H         0.71787925925190    3.98373487507090   -1.50764169670977
H        -0.15495154648076    3.75047430582936   -3.02887002332335
H        -0.50622654459137    2.72672403128700   -1.62700624681619
C        -2.87578603612199    5.75848176557868    1.81208475446231
H        -3.48429337453557    6.62815562276942    2.04349591724297
H        -1.95887314528513    5.79123335224631    2.40192782374917
H        -3.42379690110456    4.86184746485617    2.10614228209714

