108
CSD_code = TIWLOB | q = 1 | S = 0 | Stoichiometry = C40H60MoN7(1+) | MND = 10
Mo        5.63586990143389    1.97463416510306    4.91164131065534
N         6.60345280217884    0.23460759574019    3.90613697308724
N         7.76300010081193    2.46479465646499    5.16953360897192
N         5.23313369697793   -0.70664915218259    2.21961737806207
N         6.32824819820708   -2.14207018951647    3.49170431369382
N         9.31642930670752    2.95226914539392    6.96697607365200
N         8.12674505721496    4.60610776799094    6.12925764849499
N         5.94663761675546    3.75375798344964    2.34843493128030
C         7.91682911138252    0.12605328764298    4.49340156394381
H         8.53733729238862   -0.59257606290274    3.94359097414808
H         7.88193971805508   -0.17094203855048    5.55324693078373
C         8.55626665435194    1.51072727438240    4.42489199676992
H         9.59679792894058    1.47184268455988    4.76106120143707
H         8.54623980585301    1.82873969744265    3.36924654647335
C         6.07865454313371   -0.80338886090781    3.28811501254530
C         5.00271405032870   -1.98064789249979    1.71474222236429
C         5.67686049990756   -2.86287989694903    2.48801105162938
C         4.14855853085787   -2.28743205305209    0.53751704538622
H         4.28977140115579   -3.32650992594464    0.25523861735007
H         4.40324024567788   -1.66412995361385   -0.31540147078027
H         3.09448652995768   -2.14623402180840    0.76935341607339
C         5.78014116503269   -4.33460573165038    2.28794341798463
H         4.93262537371823   -4.85923499372211    2.72908661720696
H         6.69708460516391   -4.72822037481585    2.71066056318096
H         5.78569465293513   -4.55382990720348    1.22232827840990
C         4.84300169647591    0.56151864478228    1.63092186986515
H         5.01469164980308    1.29268956845685    2.42939089307374
C         3.36727327105498    0.62391564753236    1.24372235223715
H         3.17847050505849    0.18806712549759    0.26832692877389
H         3.06274227114578    1.66664758059772    1.20519722201014
H         2.75407050694877    0.11600622232613    1.98344900262946
C         5.76136110523880    0.91067113866206    0.46090663557582
H         6.79337705634563    0.93451561348531    0.80176423211744
H         5.49978402931391    1.89112674284892    0.07418081618273
H         5.67553482634823    0.18632510525588   -0.34489816610434
C         6.77419806053638   -2.70154688359003    4.76413158634401
H         6.88201929761162   -1.84598634154132    5.43098884553039
C         5.70664176983176   -3.60602343594935    5.38362687585442
H         4.72803946262954   -3.13342349646650    5.33040765405342
H         5.94913461979438   -3.77704775381861    6.42968378054166
H         5.65509458049187   -4.57031695043253    4.89100359094671
C         8.12551205151467   -3.41206388046401    4.67059965698249
H         8.03667825257923   -4.38893559323721    4.20558011803064
H         8.52507212485469   -3.55660938793017    5.67104485565910
H         8.83587150573363   -2.82206808938443    4.09695449240306
C         8.35309800590132    3.26381857235468    6.04043171522467
C         9.71569684533330    4.12559652640125    7.59865149382226
C         8.97877980385253    5.14134936291908    7.08437622562128
C        10.80103082409547    4.21639604465061    8.61270697792813
H        11.30196041559206    5.17731739825218    8.52312882028076
H        11.54320594823220    3.44023027040403    8.46338722286187
H        10.40802068560290    4.14000019437346    9.62650336551043
C         9.03977018309657    6.57805529311573    7.46095448669009
H         8.13265090456225    6.88971173732083    7.97472254082049
H         9.18073414049252    7.21246435595436    6.58944531342070
H         9.87502748896383    6.73631012069286    8.13640853396442
C         9.56677663142620    1.59267314716800    7.42587064710203
H         8.84950828257677    0.98124524455080    6.87141043229419
C        10.98055582662237    1.09871175601350    7.11062845409023
H        11.29990807280110    1.42511084658991    6.12370702900868
H        10.99873996257774    0.01234136895851    7.13635526010109
H        11.70145365230070    1.45927897098837    7.83849072660940
C         9.24209616063068    1.43663563345926    8.91261239119509
H        10.01324193807354    1.86583554086841    9.54287036352882
H         9.16548698480297    0.37864858766661    9.15106967540260
H         8.29392153843827    1.91455400763183    9.14959797043652
C         7.30274077099645    5.31884580534185    5.16475919412423
H         6.63248471700108    4.54998677432500    4.76387240088592
C         8.17456381256156    5.84259767961705    4.02401756088759
H         8.90225520913724    6.56671279986493    4.38162596466624
H         7.54859598117356    6.32095817815563    3.27636172066254
H         8.70373712382153    5.01694048889513    3.55563370257183
C         6.45332478525132    6.42656853766927    5.78238539803775
H         6.06450829272882    6.12414604207578    6.75096965800977
H         5.61279472330125    6.62870234704492    5.12338195764277
H         7.00923920944069    7.35106201809190    5.89822436802665
C         5.35620060378322    2.77623249716399    7.02488560449882
H         5.95437737772848    3.40356568609547    7.68307952390886
C         5.53839631690989    1.37390560384692    7.20297924955952
H         6.26947448263452    1.08780070707944    7.95475288379421
C         4.94129315838553    0.34353354306042    6.50430289396145
H         5.25720540533758   -0.66320069231303    6.76805542020545
C         4.02527555548753    0.42727177889099    5.41950818788778
H         3.73896589638699   -0.52930033764751    4.98543276829853
C         3.32411990363776    1.54271169838054    4.93727153444015
H         2.57998003807902    1.35671458052136    4.16968994150121
C         3.52883718161221    2.89327308342977    5.29169330016056
H         2.90517266915728    3.60911044496500    4.76149932966898
C         4.37808521973823    3.44680958542988    6.27073363503236
H         4.32995170566272    4.52436124026170    6.38566626484190
C         5.79642422621179    3.06966112183932    3.29975416072167
C         5.90533216203135    4.66737828277226    1.34792955154166
C         6.98715551932829    4.77723898906688    0.46500615919479
C         6.91820720609151    5.72619890664759   -0.54440924237642
H         7.74550525445850    5.82208550135075   -1.23145132662243
C         5.80978392415862    6.54230377134584   -0.67831671276380
H         5.77234268937144    7.27461912302848   -1.46967945534450
C         4.74555019779358    6.42339974227830    0.20189538907717
H         3.88350517593420    7.06417324002679    0.09269495293599
C         4.77365059849414    5.49175802293662    1.22399641068056
C         8.18892021635427    3.89324729320810    0.59886533159586
H         8.26239071558235    3.23027121514871   -0.26251184459925
H         8.12753084031250    3.28803694273838    1.50103171873639
H         9.09634183929367    4.49357327272476    0.63229994664042
C         3.64083691784424    5.34175463522649    2.19037851445960
H         2.87074248208746    6.08368529673993    2.00026870966551
H         3.99881996611452    5.45339759580766    3.21402341809631
H         3.20058820022148    4.34787719698778    2.10539274362777

