55
CSD_code = TIWQIC | q = 0 | S = 0 | Stoichiometry = C24H19BClFeN9 | MND = 5
C         0.67596064205658    6.43893379938144    3.10149139790837
H         1.25169706135603    5.55765693997145    3.35042554977614
C        -0.67331367105154    6.53445091996789    3.38232006417347
H        -1.18518396399611    5.71082442913867    3.85379180365464
C        -1.35145485578501    7.70536612812542    3.05348789588639
H        -2.40443199997783    7.81065725750921    3.26612729397938
C        -0.64888703449364    8.72887633471428    2.44902197139532
H        -1.12851846547433    9.65407170281985    2.17082443531821
C         0.70968755280935    8.56123242213182    2.19176876560558
C         1.58798398322812    9.53826902872176    1.61327809395853
C         1.63010872309416   10.93423544590033    1.42583371604543
H         0.82749266576837   11.63532625658300    1.52795825212839
C         2.94133886039942   11.20226815878966    1.10684239427243
H         3.41862933152411   12.13901585738413    0.90025771168180
C         6.08738977230233    8.38402939884393   -0.79639853519664
H         6.80238983060841    9.11071340931966   -1.12577547957969
C         5.65938071103984    7.22574901839839   -1.40083614987198
H         5.97114867226083    6.82419050025942   -2.34279983612275
C         4.69547914167492    6.70108323139920   -0.51735369518780
C         3.59757475203491    5.78265660202108   -0.62513601622670
C         3.51454932631444    4.72910708091189   -1.53282283991322
H         4.36168305264179    4.50904852961294   -2.16263215973007
C         2.35671329880731    3.98248947966373   -1.59042712123351
H         2.26655240925083    3.15262835782675   -2.27473604906758
C         1.30797268825088    4.32254101414067   -0.74356657368303
H         0.38069450646892    3.77271006163370   -0.75673980068499
C         1.46943998197103    5.38078694078045    0.13039018273878
H         0.66692419100480    5.65886436580149    0.79786718284397
C         6.20578652300572    9.50525293061883    3.61439168914066
H         6.95249426553866   10.24550134670161    3.40835357529423
C         6.00555255492101    8.72087326957468    4.72432498988553
H         6.56714195521840    8.68775664429382    5.63364866687994
C         4.87253023548123    7.95211942064561    4.41796070082319
C         4.22951954585868    6.99290324643897    5.30819942863329
C         2.84103656428521    6.92885129284525    5.41009406000689
H         2.23590361297116    7.60628469108192    4.83017612363229
C         2.28258759450109    5.99975147072830    6.26615190183450
H         1.20834129129903    5.91620911402843    6.36015053153516
C         3.12414026506299    5.18093269461563    7.00370140349081
H         2.73020856096288    4.43231969235337    7.67376932032705
C         4.49202489488766    5.36003465612285    6.86624943749311
H         5.19287600261162    4.76528206021423    7.43857272891701
N         1.37138734014107    7.42011055020508    2.52611915807142
N         2.80559239099518    9.04652846900397    1.36015426274672
N         3.63541425537019   10.04306229751325    1.08434332880737
N         5.43618234136640    8.52719355689053    0.37652251147151
N         4.62895066631235    7.49404067584967    0.55735197656883
N         2.57742583934717    6.10698425172538    0.20670299602279
N         5.25985147692972    9.20955483646737    2.71014002773853
N         4.44111516018101    8.26294632645308    3.19501499984915
N         5.03597927248019    6.24409213171889    6.05297083616539
Cl        3.74419901978054    5.39900061451333    2.64174615647195
Fe        3.22005823282865    7.31454358351701    1.78130559363991
B         5.13879037040191    9.73221295208231    1.27234616308464
H         5.83050860324134   10.66347455204874    1.06057497659184

