83
CSD_code = TIWSIB | q = 0 | S = 0 | Stoichiometry = C31H45CrNO5 | MND = 9
Cr        0.46398614783252    1.53121483560525    6.05050733357935
C        -3.56449791062674    4.63143091283988    5.09271229350495
H        -3.08005371218708    5.52144752338863    5.49193145533959
H        -4.57078049056099    4.57884565380333    5.51084082867271
C        -3.62893018513283    4.77599180275118    3.57263204880494
H        -4.20131717599857    5.67010897704783    3.31790380594384
H        -2.61193753829581    4.91638153667411    3.20010613583173
C        -4.24404409005568    3.56259008228047    2.86203960989219
C        -3.53671010395106    2.28788693954663    3.34572021618218
H        -4.04452687108944    1.41428822748295    2.92731080794388
H        -2.50793241301461    2.29116027821524    2.97696355000504
C        -3.50164862868983    2.17559389731563    4.87003436350141
H        -4.53355903607064    2.15471266028266    5.24735177108203
N        -2.86441241503855    0.92821525862470    5.25723673583816
H        -2.87664045872691    0.22069064946420    4.53850218961118
C        -1.80859483331750    0.87775710452616    6.11957087286941
C        -0.96369906500705   -0.26895249691958    6.13808356102487
C        -1.18430134322652   -1.39602832425260    5.16640003658618
H        -1.15156687173116   -1.04127718572286    4.13534327429439
H        -2.14965201416331   -1.87642501078717    5.33998624888932
H        -0.40789720116429   -2.14804085324126    5.28296107275776
C         0.01817927629295   -0.39013000443795    7.12824082255561
H         0.59503425492579   -1.30332118057181    7.20086085997206
C         0.16442027404961    0.60371831125403    8.10692859280016
C        -0.58938648770243    1.77700720218373    8.02071357617879
H        -0.45427282678556    2.51537082165390    8.79916753281392
C        -1.57908545428875    1.93549961319821    7.03412972466836
C        -2.47361480459364    3.16258419443632    6.96504385396342
C        -2.76842563226565    3.37985729768283    5.46046766556910
H        -1.78855150217843    3.45365288789872    4.96916539185681
C        -1.76776210381173    4.39542701763227    7.53787085601997
H        -2.40550583389804    5.26944059642021    7.44541354722412
H        -0.83409518149553    4.58084870592342    7.01058061329719
H        -1.55696684880957    4.27171362041294    8.59661877634795
C        -3.74232208456096    2.88875508394448    7.78753371864533
H        -4.44627157993291    3.71143990775876    7.69218755301223
H        -3.48105155333362    2.78551258112918    8.83909957337030
H        -4.22771433845558    1.96857570775576    7.47273552825683
C        -5.75214832579489    3.48529716978499    3.11567253105844
H        -6.17581300985384    2.61639361527965    2.61650707731002
H        -6.24123837506348    4.37361599077050    2.72237524302158
H        -5.98427355582816    3.41519244375300    4.17416523479385
C        -4.01834205892593    3.70213169766719    1.35313847454168
H        -4.44925080006290    2.85589679884788    0.82258686886526
H        -2.95606618627633    3.74422945492857    1.12512746671147
H        -4.48448154234175    4.61166997124135    0.98165643085727
O         1.09388437229974    0.52157622158180    9.14485879591113
C         1.28140010991812   -0.63740240606698    9.80453779975795
O         0.65265576652858   -1.64032888344543    9.59580334080653
C         2.38472605641874   -0.48172192854923   10.82004752082882
H         3.32848415315239   -0.66028002843689   10.29596576445600
H         2.39680396965344    0.54955632076526   11.17565562358313
C         2.23550979831298   -1.47453330728891   11.97048590645955
H         2.14557500814182   -2.47664520409778   11.55129442633771
H         1.31283787176769   -1.25896327978921   12.51370833024326
C         3.42016494524918   -1.40317055168240   12.93010363974692
H         4.33327572252476   -1.68606102543895   12.40151547726473
H         3.53915218651845   -0.36947348426935   13.26498457189404
C         3.25011001910343   -2.29815691921173   14.15791580891138
H         4.05454977916530   -2.07734609923879   14.86393830928972
H         2.30534918473326   -2.05781104710622   14.65108741114360
C         3.28365439831174   -3.78938970200457   13.83047954547381
H         4.20941153224801   -4.02024020472715   13.29809941152444
H         2.44969207931421   -4.04301243700752   13.17436367351479
C         3.20015582539830   -4.64771946125762   15.09060853761678
H         4.03088823459093   -4.39787745266127   15.75528990377398
H         2.27340432931141   -4.41801323461756   15.62215311606657
C         3.24166183693076   -6.14004042217469   14.77139455599925
H         4.17116923968401   -6.37054052055457   14.24522864252478
H         2.41410139157087   -6.38934257445363   14.10290401085282
C         3.14905621164042   -7.00105221327488   16.02875042862001
H         3.97294375954435   -6.74816893963872   16.70023536429241
H         2.21647715091993   -6.77597540047272   16.55151224926260
C         3.20041405105371   -8.48859440077100   15.70253954129999
H         3.12634752961295   -9.08356302613962   16.60994674259376
H         4.13493111294930   -8.73748744326351   15.20419153130014
H         2.37904124035997   -8.76294983693929   15.04398582544554
C         0.30460117416861    1.95204368624611    4.29403701844871
O         0.23700802667668    2.22844451676314    3.16787823031962
C         2.12531443809603    1.02699744023587    5.51245049477305
O         3.18996434842222    0.77815247233680    5.13316619976831
C         1.31529541816006    3.13671426653499    6.10408753427757
O         1.90541021925235    4.13280453452927    6.06376898950224

