145
CSD_code = TIWSAV | q = 0 | S = 0 | Stoichiometry = C63H74I2N4OZn | MND = 5
I         9.65326988193866    3.33274632035564   32.81496127431699
I         9.90896504282092    3.48282212119526   38.37022438841996
Zn       13.17172695605304    7.75681532669706   35.33615848313597
O        11.36608994497604    9.13189333974667   35.27839283779686
H        11.49321687620831    9.74707042062342   34.54739744127716
N        12.30353763589637    6.52451153677273   33.94546793312085
N        14.03788294641622    8.79348574362954   33.81121327430981
N        14.22353441788736    8.82933900107263   36.68051378749021
N        12.47499297232506    6.56983181590084   36.83089456257136
C        11.49729288090176    5.47125540520624   34.22575060775494
C        10.96690586152111    4.95053692766396   32.99472606132568
C        11.45350595170781    5.70652477591191   31.98144645604820
H        11.24940915092989    5.61645651268803   30.93310264075422
C        12.30219643919618    6.68734567017273   32.59523526400106
C        12.98783513789193    7.67831561824398   31.89147168452524
C        13.80380979755330    8.64466264909410   32.48053875669903
C        14.56069070823311    9.61693677343823   31.74005147358995
H        14.56780768268482    9.70977832109928   30.67169828044096
C        15.25033586955801   10.34674410865099   32.64712188438084
H        15.91195675607346   11.17121941063407   32.46701571342145
C        14.92431415559424    9.81471792282469   33.94222959977137
C        15.44341533871405   10.30188137974664   35.14221197732540
C        15.11112926379757    9.82070023983720   36.40882258281858
C        15.69464733944424   10.30195871265375   37.63222162290602
H        16.44877901694285   11.06122370602904   37.70103658399329
C        15.12550409087235    9.59921438409095   38.63792574415626
H        15.32438015103322    9.66961003845751   39.68937511109255
C        14.20105833352329    8.68043439362398   38.02967836405674
C        13.44018157189341    7.75624346294975   38.74651987429713
C        12.63288525480662    6.77846762091481   38.16471997614019
C        11.83716183835367    5.84291724294802   38.90671606155743
H        11.74816634146497    5.79751036568003   39.97382423691090
C        11.22478971192710    5.06248775442091   37.98434171484773
C        11.62531339754551    5.52401538925684   36.68264758557149
C        11.18224308805396    4.99503897564750   35.48475019424283
H        10.51269746967314    4.14722720797637   35.53751961087268
C        12.84132860974342    7.69844939618220   30.42021361765612
C        12.25611840613740    8.79427400042446   29.79778473722583
H        11.92182177206584    9.61029642082208   30.41778681358680
C        12.09818709054211    8.82511493587774   28.42026871696257
C        12.53994447531810    7.72812198078146   27.68932395075661
H        12.41960236551879    7.73855186849706   26.61767231436776
C        13.13083237547664    6.61819303610411   28.28272863900047
C        13.27799140744260    6.61947346708553   29.66185100902183
H        13.74184515548298    5.79436664464084   30.17682557979107
C        11.46795373005551   10.00232351882926   27.69054276245428
C        10.22635328314198    9.51661750996316   26.92984523794905
H         9.74849116710820   10.35087265093980   26.42049368183525
H         9.50970980295995    9.07772213693213   27.62102978992672
H        10.48312377427214    8.76781587570935   26.18584973746606
C        12.49035703504108   10.58369197146258   26.70392989241045
H        12.06446526498655   11.43866115244382   26.18296742210896
H        12.78927747983431    9.84882552759670   25.96173080146741
H        13.38116704180231   10.91230760433256   27.23549081745033
C        11.03577213100290   11.12197498604140   28.64151666106958
H        10.59675890287554   11.93538205144776   28.06716834486832
H        11.88582074502058   11.52018336627440   29.19113451178540
H        10.28758212741662   10.76865179899325   29.34755920807865
C        13.58201707166203    5.45696761646996   27.40942169127493
C        14.62726719984947    5.96110034809650   26.40458662995036
H        15.47897037263626    6.38735915505177   26.93078068075514
H        14.21506687219532    6.72404244798979   25.74986447224139
H        14.97982385315117    5.13814451483096   25.78649497643677
C        12.36631833143480    4.89357394978877   26.65995477653337
H        11.61353230992860    4.55118326546999   27.36702769983787
H        12.66585944395903    4.05022176127486   26.04145784969123
H        11.91252929051355    5.64202666831902   26.01612461563129
C        14.20943807859111    4.31989368759776   28.22028145767302
H        15.09390617628979    4.66038061850707   28.75382985567535
H        14.51059219133730    3.51913678791698   27.54783267886829
H        13.49931389695450    3.90777308735767   28.93350158747341
C        16.42905285236092   11.40154256064086   35.06579890649976
C        16.15092125476733   12.63127113541691   35.64088793718654
H        15.19534570234532   12.76449956906503   36.12538266503869
C        17.07323147344268   13.67078282953372   35.58879212465875
C        18.27567165540451   13.44100862892108   34.93780698755783
H        19.00432862620999   14.23154635506230   34.88428600577772
C        18.58267932892040   12.21660745741227   34.34647308675530
C        17.64557254655336   11.19977965739239   34.42113104702494
H        17.83572535555393   10.22782399460896   33.99671445280639
C        16.72939158976228   14.99824719773234   36.24828029323826
C        15.46521959816728   15.57000817895080   35.59166657347500
H        14.61852979296718   14.90012758354671   35.71273595754960
H        15.63062505668033   15.72152187662867   34.52687400574497
H        15.20939520422011   16.52735283606104   36.04096706582418
C        17.84668992395327   16.03643968212275   36.11522291679043
H        18.76241410630476   15.68991730830097   36.58896138232038
H        17.54399269858375   16.95865089019544   36.60730179289435
H        18.04738779525902   16.26516132824025   35.07096098743727
C        16.47683660373414   14.75750703291025   37.74349873618581
H        15.64816553417631   14.07266431010630   37.90114652066590
H        16.24180729190232   15.69648522981693   38.24035924055905
H        17.36351244641855   14.33332777641614   38.21064878799116
C        19.92426489018871   12.04685605122511   33.64856902257581
C        21.05143990715546   12.27611874232468   34.66498101151765
H        20.96407903054902   11.56915721471394   35.48745389856759
H        21.01906046883791   13.28174929045874   35.07507259080137
H        22.01957828636625   12.13431466136713   34.18926142835446
C        20.10189384071516   10.65015605320753   33.04683903026686
H        20.06547900286653    9.88399523642206   33.81771749891750
H        21.07166132964895   10.58754696406775   32.55701025219817
H        19.33612865158193   10.44294079458948   32.30276468125196
C        20.03108695542314   13.07250363800228   32.51114408950571
H        19.22229497407399   12.92780542172425   31.79767634132190
H        20.97743369430349   12.95385148607515   31.98766506174911
H        19.97649875095144   14.09075351308993   32.88609060714519
C        13.49779459730686    7.81319764846087   40.22164000266540
C        13.08570838851090    8.95924838649101   40.88382277365864
H        12.72312322866987    9.78683843791763   40.29308658117877
C        13.12317288345379    9.03698817184342   42.27149092049508
C        13.58104308307035    7.93153339298555   42.97213344261483
H        13.61525414261264    7.96741569616020   44.04742996927118
C        14.00375769264831    6.76579367034163   42.33525223377518
C        13.95894854707388    6.72186733728540   40.95171443178501
H        14.29079680218527    5.85324382786041   40.40709701511029
C        12.66660596260305   10.31868008892595   42.95260677049529
C        13.53893965108059   11.48143194667458   42.45825974886530
H        13.23479917706335   12.40905208271203   42.93879380694864
H        13.45476348805302   11.61190755096793   41.38287665278835
H        14.58401783356383   11.29575984717550   42.69852816449420
C        11.19765938839405   10.57892815604051   42.59096076314043
H        10.57755099750738    9.74601030481292   42.91600014775355
H        11.06929841877224   10.70068347896011   41.51906251743595
H        10.84500436040117   11.48377558073418   43.08166771276836
C        12.77816248523447   10.25456722726011   44.47816499663531
H        12.15199311105302    9.46342358337282   44.88431664108931
H        12.44358977336992   11.19796684451827   44.90516063987376
H        13.80770215812674   10.09299863422577   44.78979260883877
C        14.48954453572829    5.59607622278087   43.17864083843906
C        13.35380360492723    5.14313734441000   44.10709734851007
H        13.67661364995047    4.29478434723584   44.70680857517216
H        12.48755773971956    4.84078467593216   43.52217585925211
H        13.04856436767408    5.93866101645031   44.78127548612598
C        15.69730795857364    6.04564209544802   44.01274420255942
H        16.07327643538346    5.21440336864907   44.60547255291916
H        15.43493752414227    6.85359602971558   44.69017862000297
H        16.49560803605881    6.39311611698530   43.36003419837288
C        14.91689309466822    4.39537388560978   42.33010940515849
H        15.25382320638256    3.59251501044059   42.98284713922460
H        15.73887598162704    4.65599843562901   41.66731831778812
H        14.08685206411787    4.01791291838407   41.73735839937657
C        10.03719081523280    8.64426898782881   35.23505147205572
H         9.32258914917472    9.46354483212580   35.35618598756122
H         9.92853833808022    7.94801821218391   36.06324508159854
H         9.83177260414370    8.11641571500933   34.30005812130785

