35
CSD_code = TIXSAV | q = 0 | S = 0 | Stoichiometry = C14H14Cl2N4Pd | MND = 4
Pd        4.12733421329326    2.59033692785679   10.19687986402027
Cl        6.21905788904486    2.00715856204081    9.74477990635847
Cl        4.58780740523510    2.93874044938423   12.33870829683134
C         2.46544386811181    4.43648544711547    8.48158563088245
C         1.73289218706600    5.47689329424542    7.64271632193400
H         1.49797545563290    6.33652961096025    8.26561405362131
H         0.81400062234169    5.07860769022223    7.21829642423184
H         2.38467869394279    5.81076944941761    6.83908085904476
N         1.63139006402908    3.95876532926679    9.57927439046617
N         2.16877223190091    3.13112455729076   10.48378553477966
C         1.23680052315748    2.85220633774660   11.37140961886311
H         1.45287588692810    2.21050032154201   12.20444801633339
C         0.05096976755479    3.51729373445853   11.03429204154638
H        -0.88049547173625    3.49255557764948   11.56005489964511
C         0.33901245294324    4.21252995782268    9.88508185095712
H        -0.28056104715222    4.85546378381579    9.29580296008310
N         2.81309559131890    3.26372159092463    7.68605896649001
N         3.57755451265919    2.31446425839777    8.23943023938225
C         3.76606745643810    1.37708713471171    7.33386660449257
H         4.36812668441248    0.51691913638448    7.55777373293058
C         3.10098672594598    1.72430980403801    6.15092873382257
H         3.06733651472539    1.16918532769785    5.23694425813627
C         2.50300409165743    2.93309606601542    6.41226695861055
H         1.90269430291046    3.55499878391532    5.78188377440600
C         3.75386622548818    5.04308363219089    9.05921723905056
C         3.73620812755258    5.69441830340560   10.29493877619032
H         2.81469726968294    5.79349189410395   10.85354079807892
C         4.90956752246908    6.20695246110966   10.82305094171882
H         4.89136303177703    6.67527703427922   11.79455870364866
C         6.09806885166760    6.09856218505774   10.12074675265858
H         7.01482673169554    6.47036704390635   10.55045006888887
C         6.10880236755119    5.51114177730403    8.86695121258605
H         7.02847053828357    5.43522159017956    8.30844474320968
C         4.94267094477333    4.99436281970450    8.32749840457986
H         4.96673776669739    4.54267812583869    7.34453842152107

