39
CSD_code = TIXWEC | q = 0 | S = 0 | Stoichiometry = C17H19ClSiZr | MND = 16
Zr        1.98710718782239    2.45258223578003    3.28525800404866
Si        0.74003057269575    2.45222252533670    0.09120181116004
Cl        4.36781386604856    2.45039361980946    3.45482408500730
C         2.59405281206300    2.45222359961137    5.84611225936635
C         1.80894255778167    3.59159160276556    5.59982508420828
C         0.52115140510908    3.15911991747923    5.20387901268878
C         1.74967452538270    2.45219347458906   -1.52436472767334
C        -1.13325954406795    2.45221090051317   -0.26012342220127
C         2.60452075273606    4.14300186939956    1.58783362642357
C         2.61784624403366    4.97820479869532    2.72538914461460
C         1.29180763128731    5.14331398750383    3.15664173488402
C         0.45980738519114    4.36942103659937    2.32909746193438
C         1.25624902254430    3.79498172023671    1.30671826738849
H         3.59994425583052    2.45222390369242    6.24238211902612
H         2.10816045976262    4.60931527860607    5.81349808150172
H        -0.35948119642518    3.78285973415216    5.10747754692642
H         3.45840754762238    3.93381835053546    0.95224250327735
H         3.48580613918623    5.48872343497135    3.12263719825803
H         0.95982195540644    5.81668306560024    3.93404299669298
H        -0.62351129959967    4.36336084352114    2.34927096907353
H         1.52171734416886    3.32934832813462   -2.12061879935202
H         2.81713060147447    2.45220196887419   -1.32984226523498
H        -1.41508338141495    3.32768058912754   -0.83454918113928
H        -1.71992760665122    2.45220998420762    0.65285367752284
C         1.80899393715353    1.31284424292069    5.59969131855371
C         0.52118152643389    1.74530646425066    5.20378605971321
H        -0.35943759433453    1.12154040482405    5.10738786301357
C         2.60471931365701    0.76184952534454    1.58816576301677
C         2.61804679637185   -0.07333536866342    2.72574427278710
C         1.29196003452339   -0.23868822577763    3.15679686671289
H         3.48594850915307   -0.58411997329696    3.12279455475101
C         0.45995630069127    0.53514400356367    2.32920548720121
H         1.52171966368931    1.57502871683535   -2.12061102168442
H        -1.41508403280128    1.57674937065823   -0.83456263578668
C         1.25641639530321    1.10965988558770    1.30689758617478
H         3.45854946817140    0.97078408471312    0.95241138242490
H        -0.62336294472951    0.54100355655011    2.34922366088853
H         0.95994907836692   -0.91226865099537    3.93399931202631
H         2.10821431036583    0.29511519374375    5.81338234180390

