47
CSD_code = TIXXAZ | q = 0 | S = 0 | Stoichiometry = C14H26N2O4Os | MND = 6
Os        9.57141726197266    7.25246906938187    3.61668307338003
O         8.07851000529538    7.22263701440842    4.30971783813656
O        11.14515840561393    7.41223681200219    4.07262236483611
O         9.41464779924201    8.50971223121411    2.54279045315984
O         9.59800868402307    5.78518483868625    2.83893282295456
N         9.57139805434199    9.01118582295273    5.83948404341361
N         9.90489230945022    6.03354635052816    6.15535803568696
C         9.32601010775270    8.25090170101942    7.06468588436401
C         9.36521150740767    9.16080568518938    8.31304028116260
C         9.37493985082853    8.39374108310465    9.62568885194827
C        10.58723210250943    7.47732080219730    9.64925275626062
C        10.43731899632495    6.43689030993608    8.55077811046272
C        10.29750359544192    7.04445301808131    7.13675467524459
C         8.49142704007009    9.92539550680762    5.46754118873824
C         9.15727918081677   10.91388725300825    4.52414972838067
C        10.49861172358379   11.13753938884299    5.21598587109492
C        10.84526667185849    9.73713164358021    5.72767608346579
C         8.64119424012887    5.31559944818068    6.37898049623588
C         8.94290865718408    3.83263919922706    6.14884012633864
C        10.17579710913464    3.88167180200599    5.25137225307882
C        10.94262339668394    5.04731424227602    5.85434560011119
H         8.31123539863275    7.85079185249324    6.96726270660657
H        10.25746143458346    9.78780881367473    8.28593261937876
H         8.49647125599975    9.82109171855663    8.28874268946961
H         8.46242273915880    7.80244792389801    9.72586882221173
H         9.41050396988369    9.10003697342919   10.45747947915806
H        10.67062233716694    6.97465863159081   10.61486315716120
H        11.49617807525923    8.06263121689310    9.49567767042502
H         9.55974244419541    5.83167882377300    8.78196211276713
H        11.30602366516635    5.77615800108095    8.56006557830625
H        11.28445964047433    7.39766620131506    6.81982282081566
H         8.09905170469414   10.45962147604586    6.34466279417747
H         7.67653645298645    9.36370306655636    5.00712800363828
H         8.57937137215702   11.82675929419489    4.39559367208560
H         9.31089923762230   10.43893368770065    3.55252413161568
H        11.26117072493520   11.52764642304411    4.54623614616337
H        10.37909075962846   11.83356985605147    6.05006320540357
H        11.39065728774230    9.76881682849596    6.67397251876749
H        11.47399800014607    9.20866161045898    5.00186917058884
H         7.91146782706253    5.67666447998052    5.64522753969129
H         8.22729298546956    5.50122867273820    7.37300502888645
H         9.18545899584428    3.33803547722233    7.09273364890319
H         8.10548366322332    3.31216514455399    5.69055065997519
H        10.74841426373114    2.95649711449850    5.25191424200585
H         9.88518178199251    4.13082221438200    4.22827193098698
H        11.67826260782266    5.48340883401809    5.17596320153925
H        11.45818467475606    4.71703244072351    6.76752591081675

