41
CSD_code = TIXYEH | q = 0 | S = 0 | Stoichiometry = C18H16Cl2N4Ni | MND = 4
Ni        8.66727568355335    2.40961031879196    3.31616361804327
Cl        7.63547537469350    0.87334656220207    2.38549883203065
Cl       10.22641406008407    3.55028800009923    4.02658799500635
N         7.68592274995961    3.73535724181406    2.50952169396704
N         6.11203091970708    5.13267822406222    1.80739014671316
N         7.55778520675852    2.21015903220283    5.25986945492256
N         5.87093018918531    1.19264947710553    6.31211601134564
C         9.49935928164739    4.52156105037126    0.96535165130985
H        10.24120734691758    3.80771404308948    1.29618042638744
C         9.75857567753915    5.45024081469807   -0.01670341669686
H        10.73267006982623    5.47787796312439   -0.47966009937005
C         8.78420227589509    6.36191017684770   -0.43558691752291
H         9.03142069747569    7.07505116333386   -1.20727169163561
C         7.51441483558226    6.36741753871032    0.10241052493338
H         6.76942184672197    7.06743416647125   -0.24347867041434
C         7.23971919010614    5.43045845076562    1.09103194570011
C         8.22730964686957    4.52719447318916    1.53312570371433
C         6.41016819408009    4.08528164490240    2.64601305385968
C         5.34325642005465    3.47513853376157    3.38767756586018
H         4.37896615297091    3.76437072533004    2.98755762343899
C         5.26693027059897    2.60372649899609    4.41794987339363
H         4.25882792748961    2.30465530275765    4.67476670223579
C         6.24942960268391    2.01917345914490    5.27747544286645
C         8.06833513220752    1.50215524668773    6.30863171211768
C         9.38503475532054    1.37330001171334    6.74969717806014
H        10.18334016628946    1.88001066407599    6.23076929694829
C         9.60771201343300    0.58731992415170    7.85612702086230
H        10.61353109312464    0.46211620733193    8.22744574641639
C         8.55882351222941   -0.06154212215843    8.51840880975451
H         8.78292143016001   -0.67046273284938    9.38155948709887
C         7.25055336477740    0.05518808002544    8.09980204029930
H         6.45441360718280   -0.45345676390050    8.62299561921891
C         7.01057835582421    0.84867601624663    6.98505740512801
C         4.54637363159883    0.72822466555666    6.61572654527248
H         3.89438896726557    1.55942176264516    6.89541703826691
H         4.60285001537474    0.03614153103774    7.45310442349176
H         4.11600147138837    0.20352043312746    5.76026852901397
C         4.85901771692890    5.82856235723873    1.70502911893867
H         4.11030755619298    5.21892912650459    1.19337272427862
H         5.01461317853691    6.73843152447305    1.13066436248843
H         4.48859041176443    6.10016920630415    2.69383547224978

