75
CSD_code = TIYGOY | q = 0 | S = 0 | Stoichiometry = C32H29BF10HfSi2 | MND = 14
Hf        6.63400185136523   10.72999933467420   -2.11234458982641
B         7.19192031607840    8.52999179579717   -2.35672746594912
C         6.50104505942706    8.53259014269841   -3.73801381142800
H         7.05857434557693    8.27609639172602   -4.63571729538440
C         5.15777715646290    8.82315603384256   -3.95395110117044
Si        4.21636644987744    8.37987376435500   -5.53877500717468
C         3.82638440004378    6.51649334988558   -5.46739490006420
H         3.23673209465677    6.27275955948808   -4.58962984790441
H         4.73574959932796    5.92568086822746   -5.41706478643025
H         3.27049308518970    6.19622634066832   -6.34331963698355
C         2.59421544155109    9.38396881229673   -5.56835502341759
H         2.03856973037400    9.23638877092496   -4.64700372219399
H         1.95925275667310    9.06440309241110   -6.38863193030091
H         2.75986712998389   10.45074552100010   -5.68115700572799
C         5.30281017095125    8.74071039239187   -7.06835987381590
H         6.17151978767150    8.09003930991289   -7.09490165601428
H         5.65887930997386    9.76550740394850   -7.10616925028926
H         4.73938725975071    8.55914098827105   -7.97801520674077
C         4.47543619574719    9.34749784187817   -2.87729348134544
C         4.33734405589917   10.04101498755316   -1.84559758745232
Si        3.03886595926825   10.30436255842396   -0.51432549001488
C         2.46107754223045   12.12117363313629   -0.61174906846011
H         1.85595815280546   12.29217717910239   -1.49677665422286
H         3.29648933794650   12.81434024809427   -0.64987342733005
H         1.85506659627996   12.38284643748001    0.25013600852891
C         1.60868497198855    9.10811681021899   -0.90546404698203
H         0.79714859544232    9.21530938855645   -0.19237077218489
H         1.93929459443077    8.07465058368778   -0.87484769016315
H         1.20354649073806    9.28998902896230   -1.89573873550036
C         3.73814273488982    9.91303744641773    1.21892052230698
H         2.92195023855535    9.77623163001841    1.92179391899991
H         4.36246145088818   10.70957441108334    1.60901454061591
H         4.32025277033179    8.99587711999498    1.22274878263380
C         8.77205653245257    8.28563566404988   -2.39397443826638
C         9.65541471600475    9.26764776742205   -2.83763266649568
F         9.10130977787040   10.50727893477429   -3.13613957002806
C        11.02752717145559    9.12361870709110   -2.94133644881892
F        11.78860345037243   10.13332155947382   -3.37304175463964
C        11.59785036221508    7.90748429275457   -2.57688770448948
F        12.91680455145072    7.72179690606655   -2.66821131747934
C        10.76768740850871    6.88764033630195   -2.11095168678811
F        11.30200582002147    5.71526039500499   -1.76065434787849
C         9.39639177966040    7.08379969841523   -2.03048591481812
F         8.64733898494473    6.06006129036325   -1.59551677642351
C         6.49415694671670    7.80882867643568   -1.11710147094420
C         5.35692273153607    6.98506303108431   -1.11999298222047
F         4.70064542424026    6.73910675882915   -2.26412017792617
C         4.86424027823997    6.35681096558094    0.01580647493314
F         3.75122303606101    5.61593935588904   -0.06838954317582
C         5.52198629160543    6.47580832679563    1.23485048728907
F         5.05433082683862    5.86832850244495    2.33068551268249
C         6.68223609530080    7.24669748727236    1.28664992602695
F         7.34649921546005    7.39147317165229    2.43908770493372
C         7.11810097872023    7.87950307809639    0.13904838793661
F         8.22856715128433    8.66075564413729    0.22373004234119
C         8.27026512273513   11.48529722853618   -0.33929781191375
H         9.07697455750905   10.76469756507721   -0.31776033078259
C         8.43557424416312   12.85752600021130   -0.49589101703339
H         9.34172887511390   13.34791985978970   -0.80725390492314
C         7.25084617516071   13.50186296459565   -0.12280632676062
H         7.09781543871878   14.56620910999745   -0.12140073985055
C         6.32905638306198   12.54856712084437    0.27756579189915
H         5.35649562926094   12.75031399346194    0.69626403060512
C         6.91562714210590   11.26105767507983    0.14602352100454
H         6.61332954367576   10.41009237361626    0.74656452375222
C         5.48390600366632   11.71164773662074   -4.56596524980186
H         4.97681380092445   11.19316427451336   -5.35847591749186
C         6.87356842298072   11.81594569896407   -4.41579421048336
H         7.61186804327194   11.45751529400457   -5.12023053714206
C         7.13163308357645   12.72125271063171   -3.33927713760989
H         8.07961397866109   13.20671586627586   -3.15014516441742
C         5.86711529175280   13.13305836737031   -2.83315853710134
H         5.70312139797326   13.93857808862190   -2.13601082565426
C         4.86823723120122   12.49941620834072   -3.58687251171584
H         3.80854447116163   12.66753013638358   -3.49454408893786

