41
CSD_code = TIYGAK | q = 0 | S = 0 | Stoichiometry = C8H24N4O4Zr | MND = 8
Zr       -3.29310147748241    1.32448592465414    7.35906373194491
O        -1.97283486839764    2.69925050572943    8.01385234924666
O        -4.51689801066817   -0.05082174328200    8.18074989029718
N        -4.21859680382509    2.30848190251119    9.47558271100727
H        -4.37448189248009    1.81980776129478   10.35195191914419
H        -3.50054660128887    3.02556087083421    9.58147104227891
N        -2.09906896625839    0.33822852677219    9.33639679990257
H        -1.83099642448778    0.82180771689549   10.18808414074576
H        -2.79946595997237   -0.37809374609400    9.52979232406194
C        -5.45395672038098    2.88213414909811    8.96541090509303
H        -5.91531351676020    3.60953494223560    9.66003488277184
H        -6.15382883250389    2.05974992502762    8.78109822712524
C        -1.45450070543609    3.57001166786981    7.09274680150617
H        -0.51943145545529    4.03284840371794    7.47905793378170
H        -2.16191988105301    4.40519810993143    6.87601453451879
C        -0.94072451726526   -0.23534796553004    8.66946221981166
H        -0.39354447708095   -0.96375140169414    9.29751713018890
H        -0.27009922182186    0.58688747858890    8.39677435250989
C        -5.15165311198421   -0.92194448377672    7.33607347602217
H        -6.02875008568074   -1.38347834311454    7.84157202149960
H        -4.47924631205883   -1.75815693425946    7.03001938538518
O        -4.61336661170400    2.69925195744645    6.70427543288903
O        -2.06930327851281   -0.05082022061019    6.53737757617436
N        -2.36760566018769    2.30848199924741    5.24254114444323
H        -2.21172073082636    1.81980990811072    4.36617070931758
H        -3.08565167150348    3.02556506736085    5.13665227317111
N        -4.48713267389416    0.33823019399836    5.38173235429383
H        -4.75520638137319    0.82181388317019    4.53004797300053
H        -3.78673372577989   -0.37808908289086    5.18833350360448
C        -1.13224398412137    2.88212728193278    5.75271689618453
H        -0.67087991854142    3.60952428912897    5.05809399903146
H        -0.43237801416740    2.05973859430100    5.93703337457113
C        -5.13170010007931    3.57001524106058    7.62537921318820
H        -6.06676932935190    4.03285127641275    7.23906768416228
H        -4.42428059780038    4.40520234534924    7.84210910490992
C        -5.64547518493072   -0.23535192819953    6.04866517027801
H        -6.19265192202822   -0.96375658858325    5.42060884329246
H        -6.31610402018180    0.58688021721146    6.32135427539422
C        -1.43454415823658   -0.92194082059461    7.38205321832750
H        -0.55744509843927   -1.38347029583392    6.87655408998868
H        -2.10694709599533   -1.75815658542875    7.68810638493424

