95
CSD_code = TIYJUH | q = 1 | S = 0 | Stoichiometry = C39H45FeN10(1+) | MND = 4
Fe       12.22816687321474   12.85640676315353   11.11025829085259
N        13.08763449804652   15.13574422880786   10.17558581835648
N        14.49321894705678   13.93810537768065   12.65924198916190
N        13.12484253884026   13.08038335378242   14.06345269477622
N        10.24530250546241   14.95517828285177   11.66816533962907
N         9.24903324687002   13.05887083876245   11.55531752421289
N        13.67513485330480   12.49982766372023    8.67279728578802
N        14.42189963933300   10.92726141688659    9.92595207073442
N        11.75373353141624   11.10817928365947   11.67987515666953
N        11.26136110911002   10.37271292949445   12.44011917267249
N        10.79543152836868    9.55900593191268   13.08304391458628
C        14.23094950019533   15.64305396581580   10.94370093579488
H        13.87785484919181   16.22077471969185   11.79904859612406
H        14.84392614784900   16.31641639684927   10.33056193502549
C        15.08027654931350   14.48283436832378   11.46706984019227
H        15.13241080291715   13.69984447493158   10.70680416247733
H        16.08795713210868   14.82872661471857   11.70399646778408
C        13.29038694222617   13.30073615807088   12.73758810503972
C        15.04963312708428   14.10818152777956   13.90154411146538
H        15.99227592608487   14.59323170043952   14.05131016755091
C        14.19183858615270   13.55707128465479   14.78370705485319
H        14.23961599849291   13.46779026689836   15.84923056974699
C        11.95320257250802   16.05864399381803   10.28303778454123
H        11.22120664673602   15.80386068028998    9.51240043948251
H        12.28355689198471   17.09344556566892   10.10784872117312
C        11.26341061002925   15.96620716914687   11.65429605723587
H        11.99967700157785   15.71719724906299   12.42148673696903
H        10.80064959646925   16.92434479216010   11.89863798493848
C        10.48492646194587   13.61814979927141   11.61571701618405
C         8.89930267158114   15.22060104839079   11.64340103952235
H         8.50586732070303   16.21547622205197   11.68017152360407
C         8.27476698488563   14.02595239265297   11.58019596486888
H         7.23369208798825   13.78226119404618   11.53774982048337
C        13.49169493922544   14.95141190251054    8.77337551525640
H        14.58180540994129   14.91688442127723    8.71075183127983
H        13.15225141291968   15.79391307996748    8.15840207458110
C        12.95460310219482   13.64768349426126    8.18048902295235
H        11.88931626311119   13.55548846810419    8.42211642147045
H        13.06119256111279   13.67315691353249    7.09378775261061
C        13.63525989283783   12.02300344589536    9.95253194744703
C        14.49162050624987   11.72559504878610    7.88818667791333
H        14.66466415341593   11.93374144840109    6.85246073155397
C        14.95442339607738   10.73168145191821    8.67635747401659
H        15.60987883602357    9.91330513149867    8.46094344991030
C        12.07419880387309   12.43893205016323   14.78261248641973
C        12.23477923149931   11.09353311916466   15.11847368997549
C        11.28228285048463   10.49004521645002   15.92593871172795
H        11.38829769821341    9.44617798364955   16.17312917946499
C        10.21570223414422   11.21700070659623   16.41875738391092
H         9.48681858396229   10.74185101702227   17.05698213632717
C        10.09594587306691   12.56070316460166   16.11788518461274
H         9.28112651244227   13.13669122876267   16.53130542067849
C        11.02488104045256   13.19515531004577   15.30255601434407
C        13.43531993776922   10.33656819532643   14.64749401526403
H        14.29857032307377   10.57107502776245   15.27176645105991
H        13.67673507828063   10.59533085904514   13.61917105983228
H        13.25168141078014    9.26850688342772   14.70236959712479
C        10.88850832737825   14.66657937835811   15.04285864230180
H        10.56472511616450   15.17332809780864   15.94945395293388
H        10.13674902964910   14.84941128687208   14.27667672927585
H        11.82885445794033   15.10551665849216   14.71975011257193
C         8.87830868258497   11.69188244592080   11.40371814819924
C         8.21096457316703   11.03992690165966   12.43879230874097
C         7.79457033238543    9.72958575009230   12.23534846328932
H         7.29041967580396    9.21288133686161   13.03658513408513
C         8.02513716168985    9.08801735923892   11.03597643604747
H         7.70054443245193    8.06897976838786   10.89617894061972
C         8.67715500281162    9.75170971726545   10.01133862756229
H         8.85503163761691    9.25216388963304    9.07071915603479
C         9.10057231609860   11.05960865896120   10.17695196532492
C         7.92589251604628   11.71818540004545   13.74130426838878
H         7.97386789491056   10.99483564701013   14.55003971716332
H         6.92421120100824   12.14980819138051   13.73255163449126
H         8.64438097667236   12.50685909877936   13.94491818848365
C         9.82015716734832   11.78081501914944    9.07926205326985
H         9.85417632811713   11.17633654725996    8.17677481415542
H        10.85371631508313   11.97518349422307    9.41424572221775
H         9.33646577733698   12.73124024327140    8.84917006060699
C        14.62356850543475    9.95711353028395   10.94936050033446
C        15.69313699367465   10.07921140848694   11.83298006847849
C        15.90160822131526    9.06565045707903   12.76070732560740
H        16.72895774677504    9.14636287264809   13.44926110301518
C        15.07166545897221    7.96226823702406   12.80130121585187
H        15.24670455258430    7.18346107684861   13.52717444640915
C        14.02872228634424    7.84512226288427   11.90025066323969
H        13.39007356383009    6.97607883357172   11.92381294146371
C        13.79801962927534    8.82870306116927   10.95054879077166
C        16.61769485030148   11.25917040088974   11.80273308458827
H        17.62193853678037   10.95253380633615   12.08513559058616
H        16.28425943962889   12.01000454004958   12.51751864444731
H        16.65966572308553   11.71260922532182   10.81508062146628
C        12.71400932775316    8.66939093255337    9.93008639652591
H        12.08293291768762    7.82222981918048   10.18077286541802
H        13.14169984649024    8.50294144255482    8.94054238858579
H        12.09313974760825    9.56297997882618    9.89275975521107

