73
CSD_code = TIYMUL | q = 0 | S = 0 | Stoichiometry = C24H38BClN7ORh | MND = 6
Rh        0.69235363818608    6.48197972293112   11.49837103345919
Cl        1.02683087274289    5.20179411209743   13.37588007712867
C        -0.42223321494306    7.51429166930421   12.62326659107858
N        -1.01124810648643    8.08681160351264   13.44294245670204
C        -1.52181185605746    8.90965923239604   14.44368644828213
H        -2.54449810220704    9.19002589182751   14.16894594027444
H        -0.89304624762219    9.80637431335846   14.46681040017380
C        -1.51305692906093    8.23662459846298   15.83326545792113
C        -2.42866569711450    7.01308091500053   15.82729719328614
H        -3.44201861701681    7.28259022051249   15.53401372491178
H        -2.46699605037903    6.57172977123530   16.82003618216108
H        -2.04987350504308    6.26287034132150   15.13902254482308
C        -2.02269518631226    9.26712077517123   16.84276840389551
H        -3.03412390105950    9.58564730762140   16.59742546400654
H        -1.37825292070730   10.14306402726936   16.85701837969580
H        -2.03406676391936    8.83603618022086   17.84058064108543
C        -0.08777259802819    7.81528822129941   16.18409344441044
H        -0.05066580505506    7.41574671460459   17.19440901309699
H         0.58518195235703    8.66623038177259   16.11942137129902
H         0.26404071111803    7.04752846215702   15.49904566977734
C         2.33918898617922    7.75233873552321   11.95949107428841
H         3.24688619538750    7.15428254059316   11.90080300960898
H         2.35401411712513    8.51169458038903   11.17129995526080
C         2.25260420064097    8.41148108090296   13.27723183045610
C         3.06405136403672    7.77798786944036   14.38155315277987
H         2.98054479809678    8.35616355065055   15.29779086359687
H         4.10893106300275    7.71239347988611   14.08677637606092
H         2.69372799162281    6.76843142742098   14.55138750101348
O         1.58505735678301    9.41658816176822   13.48090802507924
B         0.25856005361176    5.45376729059556    8.55393571928855
H         0.11685082662333    5.09565227770825    7.44209954384546
N         0.26685970671032    7.61175074320219    9.83836436283396
N         0.16029910725963    6.98253945230739    8.65554564506335
N        -0.87459263544545    5.17449012330822   10.77536186932309
N        -0.82767849968679    4.86247302915993    9.46838792128908
N         1.98517898531042    5.29860013523239   10.37712767628333
N         1.61615564274410    5.02038695560980    9.10989186400920
C         0.00590033215788    8.90536806479677    9.64948489313174
C        -0.25521769520184    9.10875853465056    8.29106080265004
H        -0.49074815990579   10.03988598383738    7.81719851454555
C        -0.15214688378753    7.86839656719544    7.69364307968848
C        -1.91332577537592    4.54520769630734   11.31703002015293
C        -2.55117943500916    3.79723873721160   10.32434172895686
H        -3.41572850750227    3.17607910642505   10.44187481529003
C        -1.83339153219577    4.02254532025017    9.16514925079483
C         3.15625728123743    4.69617495478039   10.59878203965960
C         3.54608947989925    4.02727602741834    9.43499568158409
H         4.43969513489393    3.45297550868720    9.29798147414449
C         2.54542699337036    4.25268013989407    8.51388359626330
C        -0.07100585649557    9.95663586300061   10.69910763045123
H         0.49719751777158    9.70876940151385   11.59109397479509
H        -1.11271888502134   10.10066168330629   10.98890440942286
H         0.29547768426297   10.89811288619836   10.29451545671641
C        -0.33977296772981    7.51455194793443    6.26277882624162
H        -1.18017117463270    6.83333280687411    6.14067911095212
H         0.54937618806533    7.02922348170126    5.86505239810272
H        -0.53467877566027    8.41778626491918    5.69088329867481
C        -2.30978127755484    4.67470661766873   12.74260946630473
H        -1.43141588687627    4.62809407794336   13.38303836532237
H        -2.99339052551526    3.87339124448484   13.01123632780130
H        -2.80901621079868    5.63037318540877   12.90539943264977
C        -2.07323181966234    3.46846574826349    7.80717196368402
H        -2.25452968646073    4.26667159539076    7.08928931614750
H        -2.94081402568874    2.81459601961124    7.83257943229201
H        -1.21172829020072    2.89660249192345    7.46680354245009
C         3.94337100373612    4.69704022830281   11.86245181193517
H         3.31297169465344    4.90166608729340   12.72165488339405
H         4.74381794620888    5.43670217904553   11.81553353424274
H         4.40396814236873    3.71895343756057   11.98995604665469
C         2.45574207364632    3.76617052705322    7.11248013523543
H         2.35480640692823    4.59923287471658    6.41926676272071
H         1.59490397473452    3.11218968100039    6.98403232756321
H         3.35687058392177    3.21046713162076    6.86709882186954

