59
CSD_code = TIYNIY | q = 0 | S = 0 | Stoichiometry = C16H30F3O6P2ReS | MND = 6
Re        0.44365326883436    1.59729814631456    5.05842556475260
P        -1.43821521043990   -0.00784875501395    5.08090393712842
P        -0.77982351884721    3.29781554487854    3.74143787803214
S         1.86983709905980    0.33030281368435    2.79773316100436
O         2.99454212893285    3.35184684262203    4.96858799873225
O         2.38433573767260   -0.50790759253704    6.23885185705244
O         0.05709538301170    2.50912059044903    7.98020229045592
O         0.51087949672410    0.86840331279530    2.85231118903690
O         2.88761125388957    1.32082978470511    3.00951704633405
O         2.02194636457581   -0.92410789105788    3.47765416033286
C         2.06147342459385    2.70374226465847    4.91818562836830
C         1.63595394656575    0.19325118773512    5.74846111607378
C         0.18956116455668    2.19228456373819    6.87400575603367
C        -1.15886100276507   -1.27738977632926    6.39361725667151
C        -2.31885140944401   -2.21989194501640    6.69477591693689
C        -3.11664451323176    0.64993648477792    5.50183414265788
C        -3.11519713464630    1.42609559000581    6.81101825189914
C        -1.84033863385958   -1.00065248632915    3.57540053032543
C        -0.91558792621723   -2.19189439359681    3.35087734385769
C         0.32083157296209    4.53970236094837    2.93374527897912
C         1.22811586252901    3.96474362622856    1.85301964921533
C        -1.81762915354937    2.66898307845765    2.34784758251515
C        -2.51942100594730    3.71045158932256    1.48417219953290
C        -1.94170975708273    4.43410878008698    4.62482707049936
C        -1.25374685139414    5.17092583222870    5.76679613604117
C         1.94541819187552   -0.09136070496578    0.96857336217735
F         0.99937663097475   -0.99200995695424    0.67343004900863
F         1.68661653197708    1.00031760720774    0.23708023765088
F         3.11674059540710   -0.58207165226065    0.57321800331997
H        -0.86753425700878   -0.73006312878160    7.29578002307990
H        -0.28132996292744   -1.84489301655699    6.06998065094015
H        -1.98421759028507   -3.00362867554679    7.37152506075490
H        -3.13935101893797   -1.69427727835560    7.17623878594461
H        -2.69501342810204   -2.69448915841328    5.79162292504442
H        -3.81995368940483   -0.18503254941577    5.54663939482001
H        -3.43175851195278    1.30486975263296    4.68490423989524
H        -4.09058632682402    1.87519240712555    6.98933329912045
H        -2.88182017948133    0.77505529893834    7.64882740539339
H        -2.36487778275948    2.21438598889388    6.78059160744554
H        -1.75374786068686   -0.32038992015860    2.72504010443691
H        -2.88443883572705   -1.32669841273827    3.64440879638291
H        -1.09049821005448   -2.60995825378622    2.36121146636681
H         0.12818584901790   -1.88944274237856    3.40479810756592
H        -1.08758433935590   -2.97500160883773    4.08560970552870
H         0.93223714951689    4.97173033281701    3.73169375129472
H        -0.30899741082546    5.33712767941462    2.52437406373571
H         1.88306824625667    4.74357574422998    1.46618565865757
H         1.85398740826406    3.16737391788518    2.24837343035381
H         0.65284095200547    3.56174185567623    1.02230344788256
H        -2.56019889053719    1.99410189794713    2.78446652714568
H        -1.14911524787720    2.06065642400309    1.73445985991405
H        -3.03917337415209    3.20850653335706    0.66959068004586
H        -3.25718623152088    4.27110374762786    2.05367684189426
H        -1.81143340551691    4.40831763414936    1.04511831706116
H        -2.76210842568449    3.82776557263493    5.01504281127819
H        -2.35551455843644    5.15178295770407    3.91365102839809
H        -1.98930365175406    5.66608261060157    6.39681456406952
H        -0.68222510000652    4.47389345795036    6.37843319361407
H        -0.57181385195637    5.92608608458771    5.38589365731973

