132
CSD_code = TIYPEW | q = 0 | S = 0 | Stoichiometry = C57H64N2O3P2RuS3 | MND = 6
Ru       -3.09543534544726   10.63242903015769   21.61152312863688
S        -1.90983285681782    7.91742498861460   23.36213271279966
S        -1.43405759434132    9.62958948009134   20.10554777239629
S        -4.09546856655868    8.63471510944951   20.60207463121175
P        -5.07152774658448   11.04320228502209   22.78691194711038
P        -1.55793578674335   12.23463604460280   22.29259698753670
O        -4.13172184924752   12.23389061690333   19.31473211125757
O        -1.84412317356915    7.34238677471818   22.03941667801021
O        -2.79898881687506    7.19178011880827   24.25027742339899
N        -2.28450250395993    9.46580109351248   23.22118796050423
N        -2.31448027601904    7.32577561374303   19.12812359687071
C        -3.73975222370161   11.62538740778237   20.21085757569590
C        -0.27883210796193    7.86016877522695   24.17644383228132
C        -0.23373632553275    8.16526676250579   25.53866103175371
C         0.97154341367278    8.03840183689995   26.21945925866190
C         2.12230822677729    7.59389780997913   25.59116187955856
C         2.05502134614546    7.31734997122504   24.23669794381048
C         0.88014913528724    7.46352860511153   23.50642372330937
C        -1.43852522384201    8.59353635731921   26.34877462443631
C        -1.78945798852309    7.50033761257865   27.36231274336629
C        -1.21951879623805    9.93810414911173   27.04830953553897
C         3.41405589385030    7.41111201872825   26.35120180324441
C         3.91735801675776    8.74459366761895   26.90835021418629
C         3.24054100203973    6.38621245931572   27.47386071431082
C         0.90990087739887    7.13230234845681   22.03329292171183
C         2.22394091132686    7.50732194376678   21.34561287074114
C         0.62928726776452    5.63599763873951   21.85846215897833
C        -1.00975072401383    7.14268781836382   18.53021392367385
C        -0.93891837481858    7.79247985830330   17.15082889942374
C        -3.08396349003570    5.17756632168765   20.04159209515471
C        -3.28222772248307    6.25832861327396   18.98279864692051
C        -5.29675429281890   10.51971254723172   24.51898485344422
C        -4.97694227249332    9.19695179165069   24.81631601941106
C        -5.08606469262567    8.72613006252757   26.11239882157376
C        -5.50905743072971    9.57356169197012   27.12274281795667
C        -5.82073081575318   10.89285621197388   26.83336962813048
C        -5.71314719040168   11.37071319021327   25.53936889590560
C        -5.72725482786883   12.74745597576306   22.77313322101297
C        -4.89970187994014   13.80518325357870   22.42383705890753
C        -5.39325967453642   15.09682588909447   22.38202678149722
C        -6.72111530178392   15.33775542651570   22.69196073051478
C        -7.55403939719008   14.28523087242734   23.04104173438431
C        -7.06365096682119   12.99388482351607   23.07994593092027
C        -6.47405717245044   10.20737602325187   21.95749086816830
C        -7.10900513607421    9.07491067886564   22.45206363413682
C        -8.12549703027008    8.47716928587823   21.72616224233956
C        -8.51587878706303    8.99877407814879   20.50607175940263
C        -7.88966723147225   10.13146122250994   20.01023737474749
C        -6.87519359796925   10.73160130133376   20.72878191400750
C        -1.45427507065634   13.66518145381340   21.16056266960717
C        -1.56676386108575   14.98745618734479   21.57474059524341
C        -1.52717713393593   16.01135551678113   20.64391338277560
C        -1.37867133412623   15.72764954711823   19.29737487455612
C        -1.28071979817296   14.41088316328380   18.87656413859231
C        -1.32654423189925   13.38433045665877   19.80041282096163
C        -1.57757224985803   13.01851113262347   23.94324825895393
C        -2.64984953518834   12.79757096651457   24.79317887595743
C        -2.67072810730969   13.34984108040314   26.06184015076917
C        -1.61316916933799   14.13583389179368   26.48542067029693
C        -0.53703781831307   14.36471272715863   25.63990521656489
C        -0.51207184252278   13.80718256691754   24.37588808353368
C         0.17917318029071   11.65908205677141   22.33072911467895
C         1.09010068505464   11.87029066449574   21.30213462167768
C         2.40374490395262   11.45838219533707   21.44505910411602
C         2.82220652968736   10.83894662505282   22.61067330297725
C         1.91356441674598   10.60702217246468   23.63059343045723
C         0.59951068380051   11.00396060058948   23.48567421553702
C        -2.57558008136238    8.38319282279989   19.88441624453306
H        -2.37164252728007    9.84815386636256   24.15352503278929
H         1.00292772964553    8.27377191417797   27.27214591342576
H         2.94690478802613    6.97473759459933   23.73576123755340
H        -2.30148428978822    8.69060266573068   25.69390310665928
H         4.16773835229033    7.02763082167485   25.65397717539622
H         0.11184926527526    7.69109425846724   21.54691662475528
H        -2.63415228448851    7.81614038089077   27.97128225703244
H        -2.06459531814452    6.59590257958422   26.82578765290920
H        -0.95065941738388    7.27949624973924   28.01863421139322
H        -0.44407089374506    9.87278509372769   27.80787554236644
H        -0.93355146927736   10.71203402135889   26.33729113548520
H        -2.14302390033734   10.25263847696519   27.53173115872581
H         4.85881027962599    8.60122890727810   27.43461122956360
H         4.07943813001366    9.45805837485194   26.10273736487551
H         3.19737958736829    9.16987788446828   27.60346126807307
H         2.86439307891962    5.44771915273654   27.07287363203650
H         4.19357792467500    6.19754056304651   27.96379606170617
H         2.53697411275203    6.74539118545270   28.22064418715750
H         3.03039052377536    6.82880806562832   21.61576760839059
H         2.09440485094238    7.45017360393416   20.26629076251161
H         2.51331429497273    8.52404431822700   21.59940385350965
H        -0.37460210339176    5.40922019268125   22.20606253430375
H         0.70469698849449    5.35982040247984   20.80858692061441
H         1.34530041624566    5.04559847572496   22.42865728711335
H        -0.26047217141332    7.59153803691376   19.18661868741516
H        -0.81767212517972    6.07046304779936   18.45915463136111
H        -4.27964391955794    6.69434467136655   19.08279966071312
H        -3.17846721930121    5.84577872374342   17.97490104297810
H        -1.11370839104669    8.86135358949536   17.23941409653348
H         0.04396488572751    7.63336537569911   16.71589624288988
H        -1.68893646418754    7.36880096251731   16.48657038637250
H        -3.92011636011559    4.48410324200728   20.02950957949633
H        -2.16418698330691    4.62376630900531   19.86678903702916
H        -3.01816380409018    5.64720764560110   21.02011088126750
H        -4.60545809015869    8.53855594252275   24.04135222917257
H        -4.82258466408353    7.70044623485162   26.31943151651349
H        -5.59233294667704    9.21075057524254   28.13714946744285
H        -6.14774083674459   11.55659150201860   27.62156666653329
H        -5.94748445773655   12.40450566711980   25.32510706612639
H        -3.86495092076017   13.60062442121144   22.17056495497441
H        -4.74204799656073   15.91098553359645   22.09987970013472
H        -7.11148373943084   16.34411077848317   22.65653130297172
H        -8.59100853598155   14.47322244319663   23.27838032995174
H        -7.71306897098344   12.16920969370998   23.34107653832401
H        -6.81793757438561    8.65334149647790   23.40258978172139
H        -8.61081772907232    7.59531775022369   22.11867466023053
H        -9.30505898219610    8.52451191625574   19.94128649212861
H        -8.18979659188425   10.54477875531482   19.05850765944088
H        -6.38889822903117   11.61685048870470   20.34202517335855
H        -1.69513716949111   15.22093463825672   22.62213831356284
H        -1.61642155577528   17.03637717009409   20.97410241411925
H        -1.34965418126726   16.53032397860393   18.57549616400351
H        -1.17917187605582   14.18394335681480   17.82569074077076
H        -1.27972565131074   12.35166190721676   19.47376534551832
H        -3.46573633354789   12.17523132885811   24.44706844555984
H        -3.50819514249002   13.15958459216547   26.71678305547352
H        -1.62166707770749   14.56823087915095   27.47496804837443
H         0.28837676179675   14.97755443653062   25.97177644679892
H         0.33190322764162   13.97539917912462   23.72066734004029
H         0.78534927429901   12.36751096827482   20.39418599933528
H         3.10586365250736   11.63124396565764   20.64224142976572
H         3.85387441127549   10.53848011240413   22.72544029224352
H         2.22433907329565   10.11654621558028   24.53991486502269
H        -0.10871377867920   10.81473013302254   24.27904415114524

