69
CSD_code = TIYSEZ | q = 0 | S = 0 | Stoichiometry = C32H32N2PtS2 | MND = 4
Pt        0.39223102199003   13.14201142467850   16.93256961999828
S        -3.50182674514959   12.02603771458715   18.74764046759329
N        -0.50211704588983   11.33443972638166   16.20765886013026
C        -1.67995482698124   11.08315955121077   16.81903359330768
C        -2.44834841389229    9.96080031594585   16.49803803988204
C        -2.02481230280390    9.11070675345830   15.49825820340859
C        -0.83806477232779    9.42652481461748   14.81761544600633
C        -0.12119180076483   10.53855114849621   15.21426909838417
C        -2.06577795193554   12.08756550073539   17.76189578582022
C        -1.33876805194308   13.25637750592470   17.91711851356150
C        -1.96346931442858   14.08658959864191   18.88244241740511
C        -3.10947390888785   13.56489016555628   19.39802536102493
C        -2.77854747959244    7.87438362233589   15.09506442019954
C        -2.07742514147311    7.19756972225082   13.92025190282279
C        -1.73519655917026    8.27635365317013   12.87971810355870
C        -0.45102428579672    8.52033336219536   13.69683337769472
C        -0.55736452101878    7.04726404858148   14.18261471300203
C        -0.08478447839678    6.71705811487863   15.59265327084166
C         0.10015466099907    6.06745171028523   13.21563305478780
S         2.98468917206800   16.73936503986248   16.74145918275732
N         2.39776450212046   12.82261069017281   16.24897937656758
C         3.10227749917631   13.97460588645967   16.22218591073650
C         5.07398162517030   12.83293004509730   15.47195529405686
C         4.35257047145475   11.63311492626051   15.57895430000303
C         3.02751201085654   11.68761929153358   15.96513712873112
C         2.37018289616256   15.10901086887904   16.69536232888775
C         1.10166507329376   14.98121654669966   17.23697461051065
C         4.43785621320725   14.00821177769245   15.81198893082533
C         0.62980902092390   16.24966362839314   17.66096889914623
C         1.51753825713695   17.26150992412928   17.46256990709436
C         6.50246036880493   12.77494647639541   15.00796613853498
C         6.91600676103988   11.32388744635010   14.77739063613910
C         6.45540615331835   10.49541851260343   15.98780292285592
C         5.09716491413382   10.37759417680184   15.26837446712474
C         5.86329422120660   10.56651681519545   13.92874388002766
C         6.40533729967237    9.25104253218241   13.37823996531952
C         5.16323489363856   11.30629169625806   12.79595680580191
H        -3.36895994649293    9.78340832819610   17.03329797874630
H         0.79292723179821   10.79889899594842   14.69661629269101
H        -1.58369027348505   15.04090018873125   19.19994317541786
H        -3.76195890403014   13.99552327745115   20.13350889086449
H        -3.79833651276578    8.14896013953544   14.80965731868882
H        -2.85625168537022    7.19438445227587   15.94750464636618
H        -2.61706486842074    6.31084979981495   13.58581119744569
H        -1.54802162127124    7.88069399159891   11.88585431415585
H        -2.42311580677145    9.11740865896788   12.80780284723444
H         0.45654643921794    8.83400729796025   13.18165147624909
H        -0.44181080652462    5.72926916947534   15.87854753682722
H        -0.43205617215701    7.43386580126370   16.33059955315758
H         1.00358219757126    6.70659825659436   15.62231527994629
H         1.18334809135829    6.16567194649308   13.26188652037307
H        -0.21175002953239    6.23288656857446   12.18895056542380
H        -0.16102303728980    5.04677580166825   13.48910330932508
H         2.45868353298187   10.77157129780743   16.05840714009081
H         4.95364919865873   14.95599194384119   15.77779708619477
H        -0.33791349933609   16.42348918487112   18.09576035362246
H         1.40124757373441   18.30190800296958   17.69956855761106
H         7.14796465225995   13.22817888072675   15.76607348406497
H         6.61868799148007   13.36380731809158   14.09428538886072
H         7.95833088597016   11.24682136313224   14.46605354379204
H         6.44419401366698   11.00569192883434   16.94970136177265
H         6.97492393647660    9.54739216202708   16.09124823569077
H         4.49944214671804    9.47647752735607   15.40322365036338
H         6.93491655275232    8.67780653285441   14.13299586457275
H         7.09318819267832    9.44912108547682   12.55822046217641
H         5.58904574586068    8.63957650091110   12.99759911169580
H         4.41358166016423   10.65954910547532   12.34291077825723
H         5.88757616438016   11.57546097350459   12.02930477836495
H         4.66532752043621   12.21152878276916   13.12995436569470

