80
CSD_code = TIYVUV | q = 0 | S = 0 | Stoichiometry = C32H43AuClO2P | MND = 2
Au        5.57113201955458    1.02858926387513   17.65657380368837
C         6.73931047632996    1.37944233342074   19.35316222330469
H         7.44767968297567    2.18024545998240   19.14997658597606
C         7.47034832977856    0.20271518754355   19.88536333958155
C         6.82660425873532   -0.85132484823972   20.55041399040353
C         7.56181817281488   -1.93948105522440   20.99845541114168
H         7.04734141657479   -2.73472840011539   21.52190771989487
C         8.92577536177464   -2.03830477435054   20.79072261241987
C         9.54702132644974   -1.02076342151825   20.08127187980215
H        10.60863744833658   -1.09119081068997   19.88301338764229
C         8.84853463621410    0.08492216485561   19.62927236667383
C         5.34441592693550   -0.86026671592115   20.76954145384990
H         5.00022025850648   -1.86847036572426   20.99339688834381
H         4.82926675070678   -0.49668297737548   19.87826645000523
H         5.06426352537424   -0.20983354236944   21.59618281496383
C         9.71716401634392   -3.20541971433473   21.30251582509867
H         9.05975373667457   -3.97917251557037   21.69222809487507
H        10.38501328906170   -2.88697090352113   22.10356809555719
H        10.32944312369989   -3.63312521424894   20.50938009393331
C         9.59119442033200    1.12948997867785   18.84340375106985
H        10.62482643344500    0.82426138634742   18.69473866990421
H         9.59120124873357    2.08717334948279   19.36451886930666
H         9.12739187032063    1.27833126757464   17.86692736995029
C         3.79031899136505    2.14027677081856   14.83593872404990
C         2.93829181226272    2.01463847862718   13.73712993385411
H         2.52063311611749    1.05189692888104   13.49347781638258
C         2.62003190122990    3.09604393073693   12.94103123265432
H         1.95811645984154    2.96704169687072   12.09687525765355
C         3.15048444024595    4.34114655811100   13.23292767725226
H         2.90029218469718    5.19756286189383   12.62452457192998
C         4.01647189596738    4.47545731592752   14.29916842228103
H         4.45361201004500    5.43819248212034   14.52143435454563
C         4.35743932952915    3.39064915069500   15.10390145997321
C         5.36079276582063    3.67503943282167   16.15955597703882
C         4.97692127076888    4.22213461524180   17.38959059684766
C         5.94798672511260    4.63644874349693   18.29467049083689
H         5.67452291068270    5.04871573762309   19.25065407634924
C         7.28350096874821    4.51236422927087   17.96728757106372
H         8.03240593803407    4.84135909759971   18.67192639977524
C         7.68248553763293    3.98117509646748   16.75396236545596
H         8.73370271657717    3.90094652836270   16.53055341684991
C         6.72040139083469    3.57102390814390   15.84112837789510
C         3.19987747029522    4.65643269204066   18.90189477351135
H         3.63464283091968    3.99152533272105   19.65352196132188
H         2.11766859065585    4.53679889119175   18.89047652078932
H         3.44421238378629    5.69515638825108   19.14436281520177
C         8.33988106306909    2.91612013863191   14.22227492244733
H         8.84709232119299    3.88534727512820   14.19046694121509
H         8.31796148224668    2.48905182826558   13.22061682978422
H         8.88629994510556    2.24233021213199   14.89079390090860
C         4.76342067429675   -0.65341389145111   14.73340994873676
C         5.53480870051243   -1.64715848101119   15.60892287346288
H         4.87950375182523   -2.15711481067096   16.31068021595422
H         6.31255330301976   -1.13915573529794   16.17920243313499
H         6.00928672474498   -2.40109607250488   14.98202699778371
C         5.75748002713693    0.06102726438828   13.81577297092554
H         6.37010587015859   -0.66647496491524   13.28512328237467
H         6.41378030273463    0.70329483556750   14.40230681510126
H         5.24705461594286    0.68317657437334   13.08308259337776
C         3.74632481929831   -1.43273217088811   13.90281530908528
H         4.28127024511809   -2.17452165436607   13.30920017812161
H         3.20356774766432   -0.79686662249359   13.20949072228593
H         3.03759780834621   -1.96498535589330   14.53236833965427
C         2.44554955453101    0.29048954272132   16.64449131459677
C         2.56645040171863   -1.03286278685805   17.39990551577561
H         1.71654696462563   -1.15301496512213   18.07062515057072
H         3.47493393312281   -1.05025072902007   18.00239649391870
H         2.57928668009430   -1.88321791787599   16.72133786320144
C         2.21205490350822    1.42388129456516   17.64820158657944
H         2.24227323745899    2.39200615132271   17.14937365464217
H         2.97426996001788    1.41841919105760   18.42705830943850
H         1.23894749513968    1.30896324605595   18.12357610645574
C         1.25194039799818    0.24253700156874   15.69335605362290
H         1.38072945886604   -0.48752789028759   14.89965697462059
H         1.06190521134965    1.21994273596897   15.25623611371531
H         0.36828357296452   -0.04330164793773   16.26420394705245
Cl        5.71695611943845    2.17202563855394   20.64703768281322
O         3.63558697549324    4.31368525197305   17.60380363061582
O         6.99315583382457    3.04895516584365   14.60667604746067
P         4.13786852660228    0.69988034799307   15.90731178967341

