57
CSD_code = TIYVIG | q = 0 | S = 0 | Stoichiometry = C26H24CoO5P | MND = 5
Co        3.21613042120772   -6.26260981706914   -6.65680838128906
P         4.67450655856201   -5.12533601834581   -5.44825676990020
C         3.02459459514986   -7.44884591596247   -5.34551911349648
O         2.88586895564158   -8.20184453817625   -4.48990348627877
C         2.24313652683547   -4.77329235790249   -6.93717545827466
O         1.70635166218338   -3.78861224409125   -7.17268334894939
C         4.37169373709370   -6.55480544383893   -8.03087895815642
C         1.79855448145606   -7.37748039510266   -7.66676902393804
O         5.08300420096207   -6.75419999624908   -8.90044234213558
O         2.15229769160055   -6.81551362414681   -9.97537109678107
O         0.36886806986166   -5.98859104305530   -8.88709851590480
C         1.49608185177029   -6.71812080918590   -8.96337516795444
C        -0.02754968471525   -5.25800660162793  -10.05601934741443
C        -0.81115159723663   -6.16825988679919  -10.99642128612281
C        -0.85508422841310   -4.07185294979397   -9.58135642908990
C         4.49336261274565   -2.31592458961915   -5.14108547032996
C         4.61401653955445   -1.02176993508585   -5.61889020516516
C         5.09297399069160   -0.79018531109636   -6.89686042369256
C         5.45462228144463   -1.85628505365949   -7.70701769691475
C         5.33300626998512   -3.14935469136875   -7.23860405541306
C         4.85886309583252   -3.38526648902184   -5.94925511596996
C         6.64225043461386   -7.07160590680025   -5.59456542017687
C         7.93962583880407   -7.55034461002316   -5.58324587067331
C         9.00093109488649   -6.67077612703653   -5.44422247631717
C         8.76317241993001   -5.31214650411004   -5.30972021537179
C         7.46785304466463   -4.82745484117729   -5.31552156403853
C         6.39951726923138   -5.70859630035680   -5.46219108692017
C         2.97743940720455   -4.77476176659176   -3.30539075727602
C         2.63001674691734   -4.67078496802007   -1.97231505405708
C         3.60025893749740   -4.81087072770941   -0.99209075363549
C         4.91620445904221   -5.05092298344308   -1.34965213012649
C         5.27250693839199   -5.14804044956160   -2.68389007265693
C         4.30234029622150   -5.00662824363743   -3.66926575163623
H         0.87869231382783   -7.45676282809361   -7.08542489731207
H         2.20180414264584   -8.37191398096454   -7.86840317386822
H         0.88511414409614   -4.91464114935088  -10.56204921511442
H        -0.18221323893237   -6.99528707063578  -11.31653167200539
H        -1.68617158188731   -6.56514514950109  -10.48635980891557
H        -1.13025868542779   -5.60940272452760  -11.87177265100691
H        -1.15016564078096   -3.46307355681295  -10.43131182543578
H        -1.74567605174905   -4.42606542969299   -9.06831879620889
H        -0.27646248890012   -3.46306633965488   -8.89185808747207
H         4.11747614148523   -2.49275146425759   -4.14305115496524
H         4.32896997927129   -0.19184469769059   -4.98908741116829
H         5.18083860811955    0.22095367334298   -7.26535304624262
H         5.82431330808754   -1.67754530752293   -8.70574049678268
H         5.60365861308156   -3.98900630736178   -7.86624182920707
H         5.80780725102933   -7.75079190904341   -5.71415195005426
H         8.12327990042484   -8.60918904542324   -5.68834333270521
H        10.01449540581359   -7.04304823159320   -5.44287560891733
H         9.59034905490161   -4.62621632194115   -5.20010341164084
H         7.28324779758004   -3.76736276138438   -5.20775893791044
H         2.22375408473752   -4.68535322522158   -4.07824763660386
H         1.60200344332279   -4.48870055003406   -1.69611106205058
H         3.32844880676669   -4.73935750186592    0.05045801047100
H         5.67146235841465   -5.16669201577703   -0.58627647197608
H         6.30066741446317   -5.33904496532491   -2.95592268684930

