27
CSD_code = TIYVIH | q = 1 | S = 0 | Stoichiometry = C7H13N3O3Re(1+) | MND = 6
Re        5.38563241648256    3.21719497365733    2.76244612866980
O         2.64032130811426    2.96773305470982    1.36250056191840
O         4.25067943138588    5.22204530752632    4.82570967559020
O         6.17867099531142    5.48760568031745    0.81744172391390
N         7.50692118802317    3.21406648103129    3.62496613875323
H         7.92053669236516    4.10857045540302    3.35349328830432
H         7.55819559534784    3.19643890258559    4.64427213575394
N         6.42637476385558    1.54892312966999    1.61506084634902
H         6.11998428360532    1.59402856902575    0.64251861631560
N         4.97275648798953    1.36159177790522    3.96042138733589
H         5.70788096177091    1.13724823084099    4.63541229776705
H         4.11015363111061    1.42773000967444    4.50375423125152
C         3.64330251098060    3.07426362882134    1.89098966989598
C         4.65336383656246    4.50137864335933    4.04220990607213
C         5.87006043002782    4.67128507453777    1.54945724140334
C         8.33110210254360    2.12526578491714    3.06607839544064
H         8.21661408145093    1.23615076604364    3.69302319044723
H         9.39462325211423    2.38244824055409    3.05753117548077
C         7.87484812840679    1.82446158906512    1.63474230102168
H         8.06431278970695    2.69998228648383    1.00670908443065
H         8.45115279156698    0.98294975584458    1.23320400926027
C         6.10135838275653    0.19814252264886    2.12924452874951
H         6.93818423496234   -0.16884631529235    2.72951896079745
H         5.94866349448360   -0.51282060841764    1.31321945039795
C         4.84700700131102    0.24400104575867    3.00628364513424
H         3.96264509912882    0.42005490589185    2.38713767417860
H         4.72315410863510   -0.71809389256345    3.51545373536660

