60
CSD_code = TIYVUS | q = 0 | S = 0 | Stoichiometry = C27H26CoO5P | MND = 5
Co        5.52966264764892    1.58232839841072   15.44490020378298
P         4.25196356499567    0.26730532014805   14.21285169919624
C         5.22815031741135    0.62144654576313   16.93074660789649
O         5.06576031524223   -0.02644936606207   17.86343647875974
C         4.50814201116815    3.01151635838264   15.03619472722768
O         3.82943128525755    3.89395630480521   14.77837195903093
C         6.95973905726147    1.20131322911852   14.42176757246481
O         7.83632789018602    0.95346700939546   13.72588430662449
C         6.70679250091267    2.85217327002170   16.56988183985172
C         7.24211764597677    3.91852908367608   15.67999592280983
C         9.10220371054832    4.36602190793900   14.17766758713819
O         6.69511645156647    4.97699648419103   15.46600355837574
O         8.42331378249776    3.55112935305805   15.16091556366447
C        10.35317277152999    3.55936684161050   13.82546669988362
C         9.48719472065326    5.71823851471107   14.77768727743826
C         8.21819374786217    4.54481568638643   12.94249602299778
C         4.67200537084442    0.20853162243632   12.44153111512937
C         4.99313684085477    1.41025671431659   11.81494456646366
C         5.31457332933774    1.42904626142863   10.47119771721643
C         5.32400456299057    0.24784408118426    9.74565786541335
C         5.00481479845327   -0.94902024025031   10.36519708338842
C         4.67692104151993   -0.97426475500148   11.70972032132206
C         4.26359842033287   -1.48952669351309   14.68889880869122
C         3.10830828116372   -2.20739953290856   14.97404814728268
C         3.20173731719721   -3.53372805921785   15.36067739287453
C         4.43862899400050   -4.14698996842951   15.46334362025424
C         5.59316042949019   -3.43282253704587   15.18017080648963
C         5.50754264306514   -2.10782081661886   14.80082175591639
C         2.47611351425212    0.66749915383783   14.18607031345478
C         1.72213067315996    0.65501019216955   13.01795714351735
C         0.37423574586739    0.96625660348520   13.06750774638160
C        -0.22580147019349    1.28613025502474   14.27385839913977
C         0.52354469772610    1.29848964478135   15.44024865433450
C         1.87085457527634    0.99584965332505   15.39696506264637
H         7.53624520726495    2.29710422695381   17.01096294020485
H         6.10741461620434    3.31828957458451   17.35403603922952
H        10.06827950346145    2.58431554846400   13.43928552786291
H        10.93727376692284    4.08391191785323   13.07481900997067
H        10.96259750236815    3.41290635631776   14.71341595710994
H         8.59477077620918    6.28274424419750   15.03271863093874
H        10.07818022966687    5.57010546606402   15.67912084128240
H        10.07372698820446    6.28470191180643   14.05932246434666
H         7.31850056923084    5.09635147708011   13.20216455112667
H         8.76200149681632    5.09451361924359   12.17899345332467
H         7.93417625725347    3.57263194651615   12.54354534054077
H         4.99484488602074    2.32702385577018   12.39116884127976
H         5.56382485884129    2.36340426208517    9.99053292320947
H         5.58331830838334    0.26039260519883    8.69755881691109
H         5.01202005149170   -1.86956312771347    9.80017892044646
H         4.42669903024508   -1.90993131485762   12.18995066326255
H         2.14038585026730   -1.73298804119291   14.89540112330998
H         2.30250130163629   -4.08852140576032   15.58465287760459
H         4.50504720853986   -5.18050563529041   15.76879404098273
H         6.55905029873694   -3.90856485135202   15.26305652411497
H         6.40355034713229   -1.53779643289811   14.59035844516143
H         2.18656785023760    0.40618266751150   12.07423506557766
H        -0.20856435588570    0.96027255959888   12.15815746310753
H        -1.27696796346281    1.53091358643252   14.30536951883912
H         0.05799047719005    1.55097317013620   16.38129273505327
H         2.46807275094724    1.01553529265478   16.30002273806734

