64
CSD_code = TIYWED | q = 0 | S = 0 | Stoichiometry = C29H28CoO5P | MND = 5
Co        1.03156685261671   17.11987848686895    3.30259676308002
P        -0.01934689534261   18.67532207588504    4.46750475353598
C         0.02948230220486   17.33881853384717    1.83221999323571
O        -0.57317193031627   17.43310874394046    0.86092114062815
C         0.53758696747785   15.85605757070106    4.49357461033579
O         0.17940940722760   15.06794382275112    5.24298643861146
C         2.59738689544293   17.97642433494762    3.54577584440412
O         3.57614702451490   18.52533398489159    3.76478531486611
C         2.06009698298541   15.68171815324687    2.23323249665363
C         3.19829977350443   15.20895385742588    3.06205318748878
O         4.34274871187515   15.58691372649835    2.96585283270644
O         2.80524870159802   14.27112310025346    3.94682039501197
C         3.77709817387505   13.80831933337163    4.88910657162332
C         3.37586099652341   12.40437544499374    5.32682660759320
C         4.35377147382035   11.87925537970584    6.37322965148251
C         4.40907289615866   12.81779664595151    7.57499000237303
C         4.80890280751777   14.22273340985769    7.13389528838717
C         3.83231664688027   14.75326106361919    6.09014445937750
C         1.68128671211777   18.52990992236930    6.63485993221973
C         2.43978505494314   19.02097178065522    7.67961951130892
C         2.47384133098212   20.38454372653843    7.92804890643086
C         1.74460165300985   21.25197894674383    7.13253420202827
C         0.97855830668610   20.76584701943947    6.08682976365236
C         0.94219060481379   19.39912511410858    5.83476380506703
C        -1.77914555632398   20.79770765841869    3.88152735652008
C        -2.15861252402892   21.92332947228932    3.17228117331663
C        -1.36055508777665   22.40526633585892    2.14740004502225
C        -0.17614585023810   21.76047860353754    1.82806776991937
C         0.20613696140376   20.63186448818450    2.52890733158622
C        -0.59281635028028   20.14538613875648    3.55919015800960
C        -1.75062610027528   18.20222672596204    6.65946870163229
C        -2.92931296495286   17.72520361105398    7.20800771344779
C        -3.89900592177480   17.15951772497025    6.39796564854355
C        -3.69335365204350   17.06632765507969    5.02952992703527
C        -2.51806797397626   17.53504020863535    4.47676499254731
C        -1.54315949907182   18.11159561401831    5.28855423948343
H         2.45350734104789   16.09444519914107    1.30261386606461
H         1.39526393014883   14.84288826211293    2.02029276372367
H         4.75672225357235   13.79345664405710    4.39306112033099
H         3.35372045664712   11.74545524618434    4.45720421144218
H         2.36699586302407   12.44743545893654    5.74203050534543
H         5.34898376862251   11.80022461690012    5.92990371260503
H         4.04785749955037   10.88095229732248    6.69192480312539
H         5.12462890016940   12.44055276557194    8.30845592698783
H         3.42665729233118   12.85330798489318    8.05148702038278
H         5.81339170958669   14.19810234339405    6.70611109969074
H         4.82751944400546   14.89454577210158    7.99465115131805
H         2.82985712619846   14.82703893295082    6.51986753462033
H         4.13580093334511   15.74608471862414    5.75049394451594
H         1.66177314959498   17.46799727536535    6.42506540899881
H         3.01174856954924   18.34250567505632    8.29500922751405
H         3.07412737081022   20.77056724158052    8.73826720318557
H         1.77415736528626   22.31476298821134    7.32267203340573
H         0.41497357911625   21.44797579128062    5.46635105134529
H        -2.40155265467677   20.42512114447146    4.68318450613614
H        -3.08172622446219   22.42582537453447    3.42141679528431
H        -1.66355979681942   23.28254393218050    1.59559786307242
H         0.44633187021665   22.13467615557225    1.02904585785984
H         1.12377433000125   20.11405965806147    2.27937691589330
H        -0.99615826602590   18.64395272560616    7.29525435087655
H        -3.08843553406689   17.79550553927524    8.27403847777532
H        -4.81459390568065   16.78668559814841    6.83221404300667
H        -4.44751941636721   16.62213395142583    4.39704236872959
H        -2.34112388650571   17.45833829166840    3.41132870760261

