26
CSD_code = TIYWOO | q = 1 | S = 0 | Stoichiometry = C7H12N2O3ReS(1+) | MND = 6
Re        8.52501774448765    3.13516407493329    7.05534903190488
S         7.02186374940930    5.04417139172946    7.63366687082561
O         8.16118878703547    3.50972031409348    4.01057497157416
O        10.67807639875637    0.94544478422914    6.66960252599513
O         6.21764989893848    1.07966155703817    7.08585540986298
N         8.67903502867960    3.05841270282672    9.34718869235267
H         8.08468214603624    2.27876921060573    9.63849974662197
H         9.61713937597443    2.81372472649531    9.66835074330992
N        10.02236248254061    4.83383332012187    7.12383912513867
H        10.43864351778844    4.96625746052165    8.04881378775302
H        10.80490182615418    4.62498115523464    6.50085164330560
C         8.31539762360466    3.34399741473222    5.12370655583917
C         9.87621774539911    1.74472543843085    6.80012548894561
C         7.09118442637627    1.80594953842092    7.06337552733627
C         8.22596860454803    4.27206274857260   10.04446252986707
H         9.00160976823615    5.04123777562975    9.96245439584693
H         8.06728406275560    4.08645859002464   11.11382143673783
C         6.92157710538489    4.77379882462623    9.44231965717415
H         6.60279083830682    5.70756561771212    9.90360699573469
H         6.12850752336085    4.03350748454364    9.56011597210650
C         8.20404027819072    6.45352930541594    7.53827262934243
H         7.66118441588589    7.28648979657669    7.09362938676496
H         8.48677121659868    6.72224791319818    8.55559153701800
C         9.41688375718847    6.10495604897999    6.68669057032440
H         9.10917175417624    5.99213451599800    5.64296837591222
H        10.13604992418684    6.93149828930884    6.74306639240529

