84
CSD_code = TIYWIK | q = 0 | S = 0 | Stoichiometry = C33H45AuClO3P | MND = 2
P         4.18125642484120    5.04379186958626   18.20517553215288
Cl        9.49160443283005    5.50885045992377   17.55076258195378
C         3.13889952143058    6.35486778718666   17.47159467469076
O         5.78546169665054    6.93378232073259   15.68763204254300
Au        6.40816839858408    5.42438848093850   18.57773830387151
O         8.76504100369942    9.66125504432975   18.37407449035861
C         3.64079249340334    7.64465251624860   17.27102687833867
O         4.15772176313536    9.18782514171348   19.44677466703084
C         2.80200780741718    8.62380542829566   16.74346599529406
H         3.19958112418618    9.61754195776441   16.59796041814102
C         1.49318358870429    8.34700504049739   16.40474272607869
H         0.86194603558227    9.12190291446102   15.99560800878421
C         0.99817300194875    7.06705761298414   16.58976070610521
H        -0.02288215389570    6.83194906991071   16.32590763242198
C         1.81516688939856    6.08831032969822   17.11844769297139
H         1.41271726108357    5.09862726050152   17.26096128192624
C         5.02380553523888    8.07135223137518   17.58383775768357
C         6.08491834554063    7.76732770019378   16.72548888333417
C         7.34881067458226    8.30187986279547   16.94567743222576
H         8.16081101990679    8.05726757239795   16.28551372604614
C         7.56641233253740    9.11444831539453   18.04984400345060
C         6.51809391245580    9.42260701460405   18.91609946312450
H         6.73701291883034   10.05792036324720   19.75696551048725
C         5.25119093936293    8.92384781716271   18.67159662815813
C         6.83732889763989    6.53191684141807   14.83577582979994
H         6.39238417667610    5.83971331953494   14.12206170508985
H         7.63109744929760    6.02462402522638   15.39246250573262
H         7.25631064010539    7.38313668000442   14.29103377192643
C         9.89400267134054    9.32852335566761   17.59541129811113
H        10.73811628034579    9.81449113703039   18.08203753047162
H         9.79971266700873    9.70800716155233   16.57306790074641
H        10.06229875154800    8.24833396273197   17.56921140685236
C         4.32960049768242    9.99022907792926   20.58975017630113
H         3.34612319947750   10.05477767361903   21.05312711300660
H         4.67282867600121   10.99560069173611   20.32787945361059
H         5.03360484121155    9.53744632102270   21.29478166996544
C         3.91033746236980    3.52314788537330   17.09602094451281
C         3.89241546184602    4.05591579306871   15.66063220919602
H         4.10285399984319    3.24809005501733   14.96100158871035
H         4.65086716066611    4.82819342466273   15.53912961232258
H         2.92810573718411    4.48842458797419   15.40378860928938
C         2.69380616553464    2.63352098177392   17.34728679340302
H         2.70299218738392    1.82450360757616   16.61631612453553
H         1.75263531470250    3.16220421579581   17.22851105153619
H         2.72581989612293    2.18335469189404   18.33647602050452
C         5.16797483053835    2.66488800327740   17.27675786684049
H         5.09150491521335    1.76019354984076   16.67480586540879
H         5.30479922526369    2.37023312003675   18.31561366045665
H         6.05276006827479    3.21211405646709   16.95483864520239
C         3.41758203858236    4.83588486524675   19.91998924992645
C         1.89984010346014    4.69062635453533   19.98711347642319
H         1.60449967667999    4.60268216423096   21.03263216538601
H         1.54606613213982    3.80459966821301   19.46933059033713
H         1.40640797433655    5.56788749259720   19.57488937400214
C         4.09945231206575    3.65091094742274   20.60321381094362
H         3.85327568635344    3.64418498138223   21.66423443259650
H         5.18397901641831    3.72754685794153   20.51035670695923
H         3.77763279591607    2.70203853570749   20.17970484553014
C         3.81167994115704    6.12599666607463   20.64632380227343
H         3.43574423756243    6.10918390227510   21.66839284627078
H         3.39918069753594    6.99864546180368   20.14131507553183
H         4.89700044316371    6.23069938783853   20.68344672570510
C         8.41857052367860    5.81031845692150   19.00284194272851
H         8.54530348596039    6.88389493502614   19.12375005663280
C         8.93640458997076    5.12939235756510   20.21561543268479
C         9.22388698529546    3.75731826277580   20.24978905717466
C         9.67248380936521    3.17347660977580   21.42606194486023
H         9.90230505417118    2.11598891438814   21.42720611151703
C         9.82559385794583    3.90102970510314   22.59241840700189
C         9.48233684237262    5.24524771447868   22.56695186325438
H         9.56700539794996    5.82553409223144   23.47651327724538
C         9.04390830292238    5.86519740442611   21.41008299642388
C         9.02539730742084    2.87897377676831   19.05172671256994
H         8.99065787482178    1.83296356010198   19.35082948394001
H         9.83462681951402    3.00113835601846   18.33356226067928
H         8.09255829842062    3.13499670733280   18.54606662302340
C        10.32693947676829    3.26681332155692   23.85615341809235
H        11.26150395307894    3.73211545294357   24.16962095287070
H        10.50223113248022    2.20304009673372   23.71353698257834
H         9.60482744349307    3.39562453646825   24.66234956311139
C         8.65909797981085    7.31686885506898   21.47543861762488
H         8.75906452301831    7.68606309931147   22.49393834156849
H         7.62502824010392    7.45716918569443   21.15447238311441
H         9.29195090535145    7.92699898193897   20.83079407877921

