91
CSD_code = TIYWUW | q = 1 | S = 0 | Stoichiometry = C40H46AuO2P2(1+) | MND = 2
Au       11.66514714288426    3.99287420249302   14.24827581167903
P        11.59468249252666    2.63473586434666   12.38276814050795
P        11.84673675432267    5.60827594764298   15.87833962897194
O         9.58875434684164    1.01041901157478   15.22392448212463
O        14.24931688003597    1.20897452078406   15.13999426966505
C        11.73460983156094    0.84902123348920   12.69281235229281
C        11.67087281423885   -0.05232362479852   11.62788638941985
H        11.49729528433040    0.31195498280075   10.62828286263523
C        11.81663984550863   -1.40978574494279   11.82912843494411
H        11.76215348241330   -2.08749379305790   10.99072756173058
C        12.03382515216013   -1.89401244054642   13.10834989182094
H        12.15896864600805   -2.95252085224763   13.27622821796434
C        12.07458053462907   -1.01506042508074   14.17243109060174
H        12.22355243850890   -1.38764154603510   15.17511336700950
C        11.91784209808882    0.35628596169669   13.98802031096340
C        11.91882288046544    1.17207712755891   15.22834051265535
C        10.70810405340616    1.39517976996733   15.89819124733725
C        10.71026412815246    1.97789249258922   17.16092762596872
H         9.79165463378998    2.14367291271646   17.69910655162728
C        11.91392024071607    2.31526673626383   17.75066654602663
H        11.91394751365017    2.74298087620473   18.74102509551511
C        13.11934715661562    2.09493840071835   17.11063402873144
H        14.03781985969815    2.35487945132598   17.60980772718764
C        13.12905422202260    1.50667967682942   15.85042259765701
C         8.35270369499645    1.01503023292526   15.90417233866902
H         7.64114449167386    0.55820965576590   15.21844752612415
H         8.02436383901075    2.03247985860891   16.14046103641734
H         8.39987936295331    0.42538393509242   16.82296803991582
C        15.50715852539776    1.46911991222536   15.72112233746304
H        16.24122816249922    1.13155664563873   14.99151568635860
H        15.64117524423484    0.91229026239932   16.65250633690559
H        15.64632515337959    2.53790984799963   15.91162678186364
C         9.98018345859688    2.87912729834057   11.42150297216813
C        10.02021278765646    2.65430263885819    9.91216800668834
H         9.01759529311366    2.80751468089637    9.51415634442992
H        10.31666218950635    1.64238008793027    9.65273434924381
H        10.68157098829048    3.36055344375148    9.41652670350726
C         8.97364548873994    1.92669670860539   12.07071663836133
H         7.96150102070993    2.19879370673731   11.77726822019773
H         9.04504349720198    1.97564215645922   13.15712902311239
H         9.15162448140045    0.89671208875804   11.77017203851217
C         9.53808283926507    4.32241198649865   11.68831885451928
H         8.60173436136485    4.52179651053553   11.17037581047934
H        10.27640763951916    5.03947206123620   11.33551858973558
H         9.37404176217899    4.48562984257604   12.75390684847682
C        13.13954715976092    3.06031914882612   11.38624416661413
C        13.43803412478277    2.17220392793829   10.18181567058183
H        14.33496338590079    2.54622186827808    9.68975924690465
H        12.63584923074598    2.18041206495939    9.45067232792055
H        13.63367927094586    1.14846909971283   10.49129150526976
C        14.28013590982624    2.90306657340196   12.39672115373791
H        15.23548769773353    3.09550813267669   11.91237532360126
H        14.29973467846481    1.89507303982582   12.80910985993920
H        14.16963064712045    3.60677690246611   13.22337784737670
C        13.04315078607025    4.52457387178789   10.95681522880434
H        14.01025409730022    4.86304611255420   10.58882424009405
H        12.76372539214076    5.16067730025650   11.79914180791721
H        12.31847288272401    4.66162534981204   10.15786516639628
C        12.18156765177781    7.24119198518372   15.15441749254250
C        11.49417645825202    7.56177711437732   13.98680773080147
H        10.82125195244183    6.83259868208130   13.55139415817447
C        11.66878398373136    8.79869677800482   13.39719402910409
H        11.13339417873109    9.04602593462491   12.49345903738740
C        12.53429353524968    9.71900874623321   13.96799523062591
H        12.67397716335890   10.68439085061033   13.50692072635505
C        13.22128641710231    9.40165987184420   15.12771661210981
H        13.89503934028012   10.11936207094617   15.57050300929873
C        13.04847553628076    8.16590945240991   15.72600853907597
H        13.59088231722192    7.91944918657628   16.62807242491996
C        13.18687678753617    5.40036067343740   17.07691479219864
C        14.46597896255094    5.24871428736363   16.54337559701500
H        14.60105479409160    5.29836850656127   15.46911676576112
C        15.54626315359881    5.05334040262805   17.38154119814682
H        16.53982017503056    4.95001070456557   16.97073860767388
C        15.35189238509003    4.99138211454441   18.75394876916430
H        16.19478960569651    4.83391317860480   19.40918589522557
C        14.08016097394481    5.13174056695566   19.28432136006495
H        13.93330791273915    5.08352478659444   20.35272190759091
C        12.99340296816817    5.33526643029449   18.45075400273257
H        12.00098890473440    5.44446100313176   18.86434484903787
C        10.34272644098678    5.92321749545234   16.83607302408635
C         9.26600424363293    5.05612824009811   16.69255685971594
H         9.36073814849837    4.20953978681676   16.02372565688172
C         8.09758389482438    5.28258040390193   17.39734402378559
H         7.25892840674869    4.61093585964913   17.28804272573676
C         8.00150254350687    6.37826711416345   18.23963085190206
H         7.09002149877847    6.55569841841488   18.78925520094515
C         9.06916049870184    7.25365033600563   18.37228574736450
H         8.98585063897369    8.11150346657598   19.02200283469655
C        10.23919991822188    7.03427173213280   17.67014216316620
H        11.07035663175166    7.72059612258228   17.75945540336500

