76
CSD_code = TIYWUT | q = 0 | S = 0 | Stoichiometry = C33H36CoO5P | MND = 5
Co        1.98920801168060   -4.09243613302417    4.39361213089046
P         0.32362509464679   -2.78436087551617    5.01441042976120
C         2.96978484494276   -2.64945526356826    3.92458273516576
O         3.52516057371442   -1.71109229220528    3.58141862629959
C         1.09800783613545   -4.81478179108285    2.98630052881253
O         0.56603366653402   -5.30036465094161    2.09772358473620
C         1.98550773689090   -4.88832214021450    5.98543557805059
O         2.00575906504046   -5.40373931138382    7.01099630274740
C         3.61246301213056   -5.30703008199269    3.98668741100052
C         4.23254062926592   -4.94436404485975    2.68518901563853
O         5.23208491102013   -4.27576556670219    2.55385730808195
O         3.56479681706892   -5.49033610974131    1.65392832393302
C         4.06815526369476   -5.28363070370410    0.32985246315167
C         3.10143509438531   -4.41378110869792   -0.48747280157192
C         3.65404297488570   -4.29552725867559   -1.90935420286646
C         3.80587571166509   -5.66898604588665   -2.55569950563649
C         4.75668314197971   -6.54700004839672   -1.74413729662198
C         4.23594365092159   -6.65998652471822   -0.31329073225703
C         2.81934661160537   -3.05589885068716    0.18702347158062
C         4.02738503807569   -2.12447368123421    0.24260478441473
C         1.64307788357973   -2.34374150259142   -0.47977621157720
C         4.90765394794339   -7.92864646135203   -2.37401273533907
C        -0.37708955996487   -1.49286594093877    2.68261918505362
C        -0.50657277557606   -0.41473434902843    1.82925265736139
C        -0.11655434694222    0.84924563387779    2.24606507360660
C         0.39795653097133    1.03206390205524    3.51831158371743
C         0.51768227403144   -0.04184260051814    4.38369357827343
C         0.12051708478632   -1.30783793703489    3.97096018736921
C        -0.66784134005841   -1.86588158711444    7.49824263446562
C        -0.50991031689288   -1.32139076220367    8.76074536137935
C         0.75066103850860   -0.98794253374619    9.22720473397113
C         1.86278462094146   -1.20460405141885    8.42946842336582
C         1.71249791921652   -1.75529429632696    7.17077686715997
C         0.44552722479676   -2.08318521074376    6.69374522019142
C        -2.48061915640455   -2.69476265196929    4.80440239167952
C        -3.74108838539459   -3.26279252827417    4.83154570583184
C        -3.88966212583292   -4.62230556220690    5.05640935333582
C        -2.77320369835614   -5.41763789237311    5.25480065063790
C        -1.50952316361905   -4.85570783048451    5.22497703058399
C        -1.35503142067420   -3.49261711732948    4.99932317093388
H         3.27613146638678   -6.34471725725570    3.93856994210281
H         4.37329709979396   -5.19852302735511    4.76210711580074
H         5.04287779606433   -4.78833414089916    0.41035844231639
H         2.14690349260304   -4.95292740553292   -0.52888168386724
H         4.62993439470217   -3.80826556310979   -1.88134149697028
H         2.98480705329074   -3.68353830899269   -2.51516824016587
H         4.18603712848500   -5.55585824444127   -3.57352780499554
H         2.82942938227537   -6.15552988308039   -2.61598478296629
H         5.73998251983756   -6.06373992066819   -1.71841908323099
H         3.26682304317950   -7.16403245476425   -0.30900185596151
H         4.92366516328695   -7.25220627917046    0.29442162324351
H         2.52130025475508   -3.27396722898291    1.22035198801432
H         3.75750178080064   -1.21491562703358    0.77611484399522
H         4.85306135304035   -2.58691168162557    0.77641895630859
H         4.35694760155813   -1.84589729383154   -0.75539862236993
H         0.76910301856110   -2.99112039746482   -0.51725484167392
H         1.38593778870947   -1.45132524988111    0.08708476040602
H         1.89340327358437   -2.03948734105271   -1.49328613647518
H         5.29060012167350   -7.84583585206327   -3.38868321266711
H         5.59653520201457   -8.53977013872053   -1.79551674272957
H         3.94626659153077   -8.43674597011137   -2.41038997955413
H        -0.66542164057548   -2.48567121483928    2.36155114005030
H        -0.90856681763329   -0.55793218471140    0.83708832525755
H        -0.21028693713869    1.69043714184858    1.57554556824396
H         0.70782623317829    2.01516580570393    3.84057166264232
H         0.91638670041926    0.10350377816825    5.37814877496327
H        -1.65491127542329   -2.12756330927558    7.14553873885251
H        -1.37724740489043   -1.15996860129808    9.38388698742662
H         0.86737890426086   -0.56605337923275   10.21423594386487
H         2.84828529712012   -0.95140572250279    8.79120092204876
H         2.57994458846701   -1.94412245809953    6.55059985725958
H        -2.36738678610854   -1.63354875180626    4.62862157856854
H        -4.61111639520763   -2.64152935976693    4.67683861436853
H        -4.87618564633034   -5.06084426321836    5.07423709480916
H        -2.88662573070643   -6.47722198270931    5.42918196449773
H        -0.63232053691679   -5.47328246931515    5.36845662130232

