36
CSD_code = TIYWEE | q = 1 | S = 0 | Stoichiometry = C10H19N3O3Re(1+) | MND = 6
Re        8.71206591060957    3.93064685256466    4.06535419556068
O         8.77297874487140    6.18604086054317    6.17818374574562
O         8.97884032621435    5.96704895262095    1.75493048457869
O         5.62569217161752    4.11162168929897    4.02767893965404
N         8.68364417953134    2.11855241087349    2.66034683872151
H         9.47348834913067    2.19312331406981    2.01456924281412
N         8.78647391912843    2.19435734774440    5.55262300063602
N        10.92681616401641    3.60946267596150    4.35273495792466
H        11.25988736395527    2.85024440899167    3.74957370762201
C         8.74926814584939    5.36824238052999    5.38433665571487
C         8.85816472153355    5.23772095349029    2.62230366209275
C         6.76442790685805    4.06081835778635    4.01136476900122
C         8.85515760837832    0.87670660713674    3.44212959767034
H         9.92139151885693    0.64349094149710    3.52559405266924
H         8.38239051059836    0.02800330447643    2.93587233555623
C         8.23347200857128    1.02834428887570    4.83308164705245
H         7.15642882015833    1.18260983773263    4.72456569672391
H         8.38573364468064    0.10520282939180    5.40709821938271
C        10.18312816877003    1.92571517373546    5.97771036020909
H        10.58897684824405    1.07986369063188    5.41592212024121
H        10.21663456466799    1.64963802226397    7.03587931154980
C        11.07759048085936    3.14273256899247    5.74276007323230
H        10.79201970601626    3.96202966603368    6.40950267068570
H        12.11957671755426    2.87663966765265    5.96240824465375
C         7.49148355918428    2.03694732083219    1.79643851591953
H         7.56654269874765    1.19853701677391    1.09836922338702
H         7.38809453295947    2.95976191934854    1.22784617134131
H         6.59744380508190    1.90328661646029    2.40243396888054
C         7.96495017087723    2.44135788280848    6.74950393445506
H         7.93154714670284    1.55666201219694    7.39359257527143
H         6.94688699863045    2.70161455196998    6.46173362020785
H         8.37919652191662    3.27320022404859    7.31685568322031
C        11.81955058145291    4.74965913519882    4.09236408066139
H        11.52149532645627    5.59602767724832    4.70954968597065
H        11.74720087405034    5.04470514882211    3.04696069408518
H        12.86025928326845    4.50048369139606    4.31812731690677

