39
CSD_code = TIZFEO | q = 0 | S = 0 | Stoichiometry = C10H18N4O4S2Zn | MND = 4
Zn       -0.00003716298604    9.84795388098265    3.30649769911514
S         0.86527324017838    8.08661993183588    1.67844419506273
O         1.83012583617060   10.46918540847961    4.07876800408841
O        -0.01976015017443   11.35566380726000    4.81949168467238
N         3.51875164931144    8.17464679528467    1.54881168520936
H         3.58673137925675    7.19285612075997    1.74457153799337
N         2.56992874558487   10.12120124919944    1.25984588341497
H         1.83546034405617   10.80585469717946    1.38432156812572
C         2.35205538169804    8.83252910976579    1.51816823755589
C         4.65062052310247    9.06668622611736    1.41490593077034
H         5.18906980304419    8.86344797597658    0.48218576973312
H         5.34284969810960    8.95310793007341    2.25261157078600
C         3.97311861325219   10.45274390414408    1.39867188336525
H         4.14129009641309   10.99690448225761    2.33385750647853
H         4.30331347287917   11.07050846203721    0.56087315833324
C         1.22725574449305   11.28556590732710    4.80737630013704
C         2.03028007555791   12.22540142634121    5.68229857088908
H         1.45253893881516   12.49718268108140    6.56047681945333
H         2.24518354996680   13.12551715506063    5.10957131017705
H         2.96611343983451   11.75440420305470    5.96733201133242
S        -0.86514584295943    8.08682820472304    4.93488874229476
O        -1.83013750818036   10.46884038554183    2.53434007891332
O         0.01965778282507   11.35531632444006    1.79347537459845
N        -3.51864407995558    8.17474637058987    5.06435657475004
H        -3.58654607125456    7.19295268366331    4.86858044347854
N        -2.56991415249233   10.12135061945891    5.35328958120241
H        -1.83544478275168   10.80604243193531    5.22902134300770
C        -2.35198139279181    8.83268051641986    5.09506886662016
C        -4.65055759401877    9.06675560263768    5.19808861281535
H        -5.18912456314047    8.86352270242241    6.13074148849428
H        -5.34267115633491    8.95312950893409    4.36029334958048
C        -3.97310507558828   10.45283838546707    5.21436901423586
H        -4.14121428454943   10.99698585177558    4.27916311948929
H        -4.30338820253326   11.07060120024706    6.05213454497658
C        -1.22739078144664   11.28573753490083    1.80619784597690
C        -2.03038486072168   12.22526057067307    0.93095106893565
H        -1.45241750646370   12.49735260628474    0.05297220338695
H        -2.24574751410828   13.12520050262406    1.50381560574849
H        -2.96600563209217   11.75397664304644    0.64557081480251

