55
CSD_code = TIZHOA | q = 0 | S = 0 | Stoichiometry = C26H21N4PPtS2 | MND = 4
C         4.53633872922095    3.48902400043395    3.09907764150218
C         5.72295451044109    3.05385859308502    2.51906848282611
H         5.84921522808490    2.00694100062312    2.28139937717418
C         6.72655785963251    3.96136679979674    2.23357611510792
H         7.64376377231971    3.61957539983247    1.77793530914387
C         6.55081755621419    5.30606552944989    2.51395351615219
H         7.33069522151035    6.01433946587584    2.27758938370536
C         5.37040088854983    5.74449561970419    3.09134853105278
H         5.22822577511086    6.79376574450956    3.30693929817194
C         4.36481670565362    4.84184208248241    3.38096926432889
H         3.43694595949594    5.18200067750522    3.82193870658224
C         3.91837041532150    0.74729390636118    3.65993623841676
C         4.06482458076108   -0.10133596643504    2.56405962283852
H         3.70176885082091    0.22697043732555    1.59153913404610
C         4.66030049225612   -1.33909077643011    2.71567606380866
H         4.77383608137905   -1.99229180697301    1.86342932918637
C         5.10417802934632   -1.74209285346433    3.96525069545253
H         5.56544634569422   -2.71079927541207    4.08841522063831
C         4.94632001988076   -0.90775609805188    5.05951934822280
H         5.28196378777942   -1.22806912987897    6.03502842149836
C         4.35489489144615    0.33500647987904    4.91254149081733
H         4.22217967965567    0.97374271271660    5.77322872910665
C         2.46105072704370    2.89709449462289    4.91902392623416
C         1.08747155330174    2.87369835473083    5.12648233684265
H         0.43703231064008    2.55264769982161    4.32467033074902
C         0.56225675966633    3.25867500864760    6.34790693941717
H        -0.50604393111709    3.23837556496011    6.50334677754276
C         1.40508002470306    3.66876656558476    7.36708379496452
H         0.99643386456766    3.96820988604917    8.32094495059825
C         2.77595498049567    3.70234976205462    7.16212658900129
H         3.43366877925478    4.02855523414773    7.95485062837343
C         3.30585432698336    3.32180011923180    5.94343261045934
H         4.37406521808787    3.36751284591945    5.77814102749488
C        -0.50755174295357    1.16126735282313    0.65226007607566
C        -1.68318731597491    0.94896634069804   -1.25786850350380
H        -2.61069223799231    0.64469308446577   -1.72454677889854
C        -0.62428140946033    1.45988142596898   -2.00154511691840
H        -0.68241130919260    1.57159252424130   -3.07052977687204
C         0.51927102696472    1.82432481834197   -1.30290093546762
H         1.39559475978907    2.23299975097014   -1.79257921615960
C         3.06409837004878    4.49258970046685    0.46941607680742
C         1.63083454726980    5.82234411870617    1.63971739283635
H         0.77356733355200    5.88672584065698    2.29889823125911
C         2.29748164795764    6.95326677218896    1.19286846625539
H         1.99188294564929    7.94482724990682    1.48064055465389
C         3.37891621166717    6.72783271854180    0.34848338525846
H         3.96558641385364    7.54223795648472   -0.05821668225525
N         0.57384848076198    1.67225216503289    0.00845601058876
N        -1.63131334695612    0.80140164280694    0.05260679656443
N         1.99920452349749    4.60346040000657    1.29223722149671
N         3.75691258415231    5.52127928647081   -0.01284931091918
P         3.13072263233940    2.35272244032055    3.31940642029968
S        -0.23024953606538    1.04205853095776    2.33118728572720
S         3.52981670233289    2.91143688185597    0.03049182788876
Pt        1.78980872463923    2.07340091942629    1.50853674389814

