55
CSD_code = TIZHIU | q = 0 | S = 0 | Stoichiometry = C26H21N4PPdS2 | MND = 4
C         7.39563557529044    2.55053265041377   12.85115431330203
C         6.59293496880745    3.62318982018489   13.23125177173961
H         6.35918027837967    4.38746466321616   12.49837262914619
C         6.09320421603818    3.69116952930908   14.51639510703139
H         5.46703031327019    4.51996895888574   14.81090810901429
C         6.38954739905465    2.68635631648458   15.42532760590773
H         5.99491087232902    2.73513855875701   16.42942585047376
C         7.18249011706478    1.61617060840026   15.04707800277215
H         7.40613949622474    0.83225731742322   15.75597816886794
C         7.68810813705007    1.54232514599511   13.76012652222539
H         8.30269852861617    0.70441068009723   13.46080359267744
C         8.90538117275769    1.00993999167549   10.95177727040315
C         8.11615653390640   -0.08338095531974   10.58604462584216
H         7.03531442354971    0.06083231406385   10.43848585559338
C         8.69381071518037   -1.32523635360136   10.40860521480936
H         8.08555371291058   -2.17212609389935   10.12738924763638
C        10.06167436575919   -1.48058766551761   10.58130829102076
H        10.51571419667619   -2.44953648753620   10.43594130783211
C        10.84787326064141   -0.39438263685758   10.92509596449387
H        11.91448195778439   -0.51628488636880   11.04412793098289
C        10.27521337397572    0.85332622699728   11.11094083392750
H        10.89320325392613    1.70277417693462   11.36325851423356
C         9.20709380928527    3.91496145240940   11.18262540038789
C        10.11208313797958    4.03118113968112   12.23458715991694
H        10.08382204620404    3.31999656837755   13.04913444463804
C        11.02882078483894    5.06594194507044   12.23639765825672
H        11.73663317021644    5.15631875450949   13.04746444791575
C        11.03833463915474    5.99032567574529   11.20265240988943
H        11.75794479551574    6.79563074769564   11.20936165414433
C        10.12055585715160    5.89118678169889   10.16987071664762
H        10.12008395578960    6.62128666210095    9.37403210738468
C         9.20295090089447    4.85584893453689   10.16027436916871
H         8.46556299824570    4.76642172979030    9.37138389634703
C         3.84156847103523    2.35114843923168    9.22098261435102
C         2.25243540452643    2.24230238954374    7.62300711663045
H         1.20374484321747    2.34506465451019    7.37458391832734
C         3.19746951924656    1.89586781903930    6.66074864038001
H         2.92616220432710    1.71018880254433    5.63575780100239
C         4.51607103073225    1.80723867995175    7.08558042146280
H         5.32737039233679    1.55747924433297    6.40858341230701
C         7.31541346366060    3.68173801037420    7.14528216275199
C         5.97467080486341    5.50926097640505    7.45349986883758
H         5.33701834171469    6.07677317234468    8.12219649171619
C         6.20748601270820    5.91286453952645    6.14645966653845
H         5.75909711677688    6.80256777976446    5.73831065208298
C         7.05681236479154    5.10303840775370    5.40086745877639
H         7.30938966439330    5.33454885541444    4.37339698958451
N         4.82864675660011    2.02065019999880    8.35014989804574
N         2.56193724407837    2.47155002224979    8.88178927172474
N         6.51653261928047    4.41676520280384    7.96288627656507
N         7.60208132334539    4.00840804031366    5.88652496045555
P         7.99146119567649    2.57140904673931   11.13275963920877
S         4.41288452175572    2.59727211700752   10.80849987412655
S         7.99434478034882    2.24949985984784    7.80311326215231
Pd        6.41265896004477    2.42934146883342    9.56953860848999

