67
CSD_code = TIZJUJ | q = 0 | S = 0 | Stoichiometry = C20H40Cl2FeN4 | MND = 4
Cl       -0.46529389408062   11.87761528624341   13.27234596457192
Cl        0.11725684761426   14.89023538652209   15.36231925334085
C         1.82997379130731   13.35520197598716   12.28703099315809
C         2.82857101037135   12.60250251077916   10.16287289047229
C         4.16705692532779   12.75951143863613   10.86584413133566
C         4.00544341468547   12.20116204807965   12.26997081665639
C         2.93525264453631   12.91195193499336   14.38057614008897
C         2.92759339303401   11.50296705400022   14.96949604996370
C         4.11663342511955   13.73344261633763   14.89895716230687
C         0.58729432402858   13.64135785116039   10.24237628249401
C        -0.15013077848101   12.41723389986510    9.70003109090640
C         0.84442798804467   14.66905144294699    9.13883862626982
C        -0.34209859520259   15.71264990563586   12.72924691989516
C         0.20448763714020   18.00915276214251   12.10570569591025
C        -1.19843613221954   18.35732199662613   12.57534894127194
C        -2.12530643724759   17.29056181931800   12.02123063603153
C        -2.59675311658819   14.89771395835250   12.41753955672790
C        -3.53116961771883   14.90204347720347   11.20914850715491
C        -3.36582468224203   14.95443566796441   13.73893411796128
C         1.91711793589119   16.52042886052858   13.09472407802778
C         2.93322715107680   16.81532860839876   11.99240795839590
C         2.18535180538621   17.34708151442950   14.35136573714977
Fe       -0.09528130913557   13.88120253139086   13.44677235439636
N        -1.60466449276903   15.96925801041142   12.33533649323644
N         0.55359721644436   16.69555076671793   12.61657788871067
N         2.89275127553475   12.87314864361449   12.92405254592348
N         1.79685130887160   13.25728060647004   10.95309643155413
H         2.86544953538578   13.05746516094545    9.17134922501000
H         2.59716127511659   11.53629242040333   10.04455097061045
H         4.43083641869559   13.81795716643137   10.92062860035820
H         4.95195835393724   12.22988941728532   10.32526828483349
H         4.91357122334688   12.36481049433831   12.85194296948739
H         3.81670064196815   11.12158492871662   12.22016227034295
H         2.01234817072053   13.41334489716980   14.69275064698416
H         2.08063371903207   10.94624163702254   14.57568052638580
H         2.82549671250431   11.56420378985055   16.04923595689830
H         3.84551329360144   10.96509405591049   14.73957986249849
H         4.21128352109241   14.65568381578778   14.33152067230330
H         3.93852990369826   13.99049436220264   15.93870316577468
H         5.05417894219822   13.18303627265448   14.84310645021766
H        -0.04443937682503   14.11265682863051   11.00816835704933
H        -0.33962873827789   11.72149799059743   10.51395731865720
H        -1.10318489292449   12.71930394074783    9.27382009672093
H         0.42716724726030   11.91519879264073    8.92685500736188
H         1.46652682699452   15.47951139758554    9.50986486628577
H        -0.10449203477719   15.08790428011138    8.81444318687793
H         1.32443392191776   14.22493224102502    8.26946820561175
H         0.92286176021869   18.74288607543392   12.46932912045253
H         0.23975760505773   18.00556035297254   11.00785231443419
H        -1.22300920346427   18.33961587218067   13.66616531470136
H        -1.49844587902534   19.34572821487872   12.22755975344362
H        -3.12023103976430   17.39495614228891   12.45991902369310
H        -2.21659340318644   17.40684289915195   10.93278776742423
H        -2.03934297184444   13.94524223334815   12.38908292693461
H        -2.95695049395972   14.93202374774492   10.28591620083463
H        -4.21447262627173   15.74754598305363   11.22748774617114
H        -4.12222145196863   13.99029771843716   11.21384954062900
H        -2.65978686335170   14.96661011352382   14.56842568229265
H        -3.99312286061869   15.84147589541185   13.80018353257863
H        -3.99950530427206   14.07756727841701   13.83664036742350
H         1.99026967025555   15.46228297775030   13.36098467084040
H         2.73825857029560   16.18652799054585   11.12778108047893
H         2.90860613643191   17.85781688936641   11.68320076174262
H         3.93351351374698   16.59598103077714   12.35640676482024
H         1.46494690121659   17.06942069063038   15.11522519565564
H         2.12400575624477   18.41707309396486   14.16419768653599
H         3.18118848086458   17.12594833531853   14.72460064473842

