51
CSD_code = TIZJER | q = 0 | S = 0 | Stoichiometry = C24H20Br3NOPRe | MND = 6
Re        3.83264546771808    2.07286781514406    0.45399349432587
Br        2.53025597184558    0.12243511017785   -1.01180194054791
Br        1.98885201347915    2.09421165610951    2.04337657230596
Br        5.01044379111422    3.76200848245399    1.83115783162023
P         4.33702719496450   -0.19312799482976    1.29976797302511
C         5.36569410497423   -1.13881075255322    0.14766283841774
C         6.57356080058254   -0.59519102290466   -0.28672270952473
C         7.35038597149044   -1.28225172739661   -1.20031867653461
C         6.92222587220468   -2.50507204346507   -1.69168811647968
C         5.71261501262839   -3.03733707690306   -1.27530591341352
C         4.92891893759028   -2.35713504298826   -0.36179501947611
C         3.17120939523740   -1.39416208307611    2.01515220565690
C         1.78813095915382   -1.34705215798440    1.92611082349440
C         1.02737958462333   -2.32884194735433    2.53865282802955
C         1.63787067194469   -3.35676485921888    3.23395755478983
C         3.02103054537967   -3.40843440514815    3.31946229798704
C         3.78797337958752   -2.43136655300018    2.71802265626648
C         5.39197383718267    0.12173608396806    2.76919932140729
C         4.78496518848959    0.72729939663801    3.86830061543024
C         5.50835845531039    0.97625475309300    5.01775032108769
C         6.84555389758269    0.61990707966708    5.08427269941031
C         7.44568593639053   -0.00797805165976    4.00641626718380
C         6.72742985229113   -0.26034083350874    2.85098931194569
C         2.74689102735698    3.33006873916751   -1.02056534612669
C         2.83761887199049    3.15127636802945   -2.38780191345981
C         2.26404417395684    4.07877447279336   -3.24401269469361
C         1.59154968496853    5.17330775414411   -2.73168636904309
C         1.49877829736808    5.34194482370450   -1.36433479129474
C         2.06947718598886    4.41776912923084   -0.49938646432309
O         5.92797610449960    2.10124755657150   -1.56243056510094
N         5.11434777574774    2.07467351180499   -0.73035603686088
H         6.90166823018474    0.36733117332230    0.08489470334271
H         8.28380626215639   -0.85621656431570   -1.53560920532615
H         7.52739047729120   -3.03713446561794   -2.41010867927191
H         5.37021012113460   -3.98102652858877   -1.67153249543175
H         3.97325080460878   -2.75826126083283   -0.05718212367632
H         1.28786887868077   -0.56108548156249    1.38398990189345
H        -0.04814060808646   -2.28271928327297    2.46681437597838
H         1.04046774087717   -4.11971942479334    3.70975199937234
H         3.50446893812628   -4.21013196279501    3.85766374468169
H         4.86780504706506   -2.47068812505290    2.78565594053335
H         3.74040052722164    1.00657588877141    3.82975258020364
H         5.02832619295174    1.45534633815853    5.85729586437751
H         7.41747282893287    0.82719770258819    5.97593818886198
H         8.48291202899148   -0.30431501817397    4.05878512308762
H         7.20723349092682   -0.76750788733833    2.02723465124387
H         3.34137236058176    2.29427557084803   -2.81167243772153
H         2.34462362209230    3.93017666667912   -4.30983208746860
H         1.13414483928907    5.88980951201493   -3.39747724138859
H         0.97845391304739    6.19062810490540   -0.94580025565374
H         1.97259434029296    4.59284886434253    0.56289839686309

