40
CSD_code = TIZKIZ | q = 0 | S = 0 | Stoichiometry = C19H18OPRh | MND = 7
Rh        1.04497993468807   -0.08228580820865    7.20015524893760
P         1.16718310642137    2.07175817668206    7.82127331584193
O        -1.58270458402924    0.45271750566904    5.90125315049562
C         1.54043932339870   -2.04964891932428    8.32961802871814
H         0.93928124849868   -2.59662628295664    9.03956988034247
C         2.53327291281992   -1.10472915946363    8.61769691016779
H         2.86889208606968   -0.81256932246538    9.60255506967589
C         3.21360931804023   -0.77731687278456    7.39688148077550
H         4.12639364539415   -0.20023960381971    7.34238004548850
C         2.64621022010314   -1.52737511944621    6.35829001464855
H         3.00895260444366   -1.61004908196252    5.34561002771335
C         1.52862945413881   -2.22616739626567    6.90964788726112
H         0.96101938365199   -2.98650839349027    6.39033300128807
C        -0.56865384264437    0.20222752472101    6.39573168548068
C         0.32206338752057    3.37813060583121    6.84329419723200
H        -0.75209933474108    3.22222803847254    6.94022057266043
H         0.58386145946428    4.37172675893113    7.20528469695263
H         0.58926762602660    3.28008240761302    5.79253360834573
C         3.59073907603574    2.55284860275267    9.12432441363799
H         3.10358793411711    2.12858655205314    9.99193820218700
C         4.91570635784994    2.94243615321716    9.18980335644538
H         5.46615465135787    2.82492376534654   10.11202394753018
C         5.53918996660008    3.47587237141446    8.07339993123273
H         6.57498617820956    3.77743656604814    8.12482595279918
C         4.83526476859759    3.61142543936221    6.88782948806842
H         5.32349394375166    4.01585680469488    6.01301149836095
C         3.50991628538937    3.22233229505974    6.81904340375325
H         2.96762635879016    3.30999952109909    5.88826919030326
C         2.87231174325486    2.70694619991255    7.94266061066152
C         0.69070132451583    3.69027344440323   10.08687686354884
H         1.25655244395844    4.46015853255853    9.57997954145799
C         0.15777868455764    3.93107621129339   11.33949739338222
H         0.29746926109097    4.89480422599332   11.80745553505568
C        -0.55337629809374    2.93880516168957   11.99685741511219
H        -0.96738906011517    3.13248769387042   12.97545919950336
C        -0.72935556616386    1.70030221637415   11.40236950666350
H        -1.28049515245078    0.92659964285419   11.91640700416226
C        -0.19562600050141    1.45679465238255   10.14933535304999
H        -0.31757201257049    0.49175369202756    9.66168211620688
C         0.51343716257010    2.44892519786296    9.48472125485816

