73
CSD_code = TIZKIY | q = 0 | S = 0 | Stoichiometry = C22H44Cl2FeN4 | MND = 4
N        11.08488328116756   11.16190566711401    9.45921906737390
N        12.05352601757699   10.01304187955916    7.70152926074327
N         8.22236720527387    9.18082472035475    5.02682136732410
N         8.80070827994858   11.42286444285975    5.15499325804295
Cl        7.12329981095195   10.55540736125946    7.94782607705745
Cl        9.67120712870449    7.96483425664919    8.68804049496317
C        10.94482940025345   10.39376104200846    8.34712763292218
C        12.17233933834105   12.08845600494466    9.76660632147721
C        13.00669808926739   12.47863202163354    8.55211842419099
C        14.03779579930828   11.40043115299172    8.23729506575294
C        13.36204541814632   10.03156393627321    8.33051801151097
C        11.95572780625802    9.35397427799675    6.40632675733454
C        12.22734756926936    7.85232773015202    6.49540268686095
C        12.87995303127216   10.01291578797129    5.38159797305206
C         9.96638080938459   11.22020336826272   10.40256958585527
C        10.44944833509322   11.06973653334090   11.84555277474926
C         9.11138530347534   12.47857919110507   10.23032378197807
C         8.81749563158198   10.18538512682481    5.66954827909836
C         7.19357783297114    9.31916928808491    4.00370984131385
C         7.73922267334279    9.69851228372769    2.62828141468384
C         8.74779585816874   10.83872797180775    2.75223085524878
C         8.33303725671444   11.83803965636274    3.83049504046314
C         9.32866922784563   12.50449768429540    5.97743051034463
C         8.22630341990733   13.48929364577065    6.36595147270785
C        10.51014760634915   13.23183716051733    5.32663398256145
C         8.45762344653305    7.82294671299875    5.50933002252711
C         7.22984588539063    7.22309026724288    6.19411598139613
C         8.97326280325507    6.92663466487909    4.38442848996193
Fe        9.07833915512692    9.94970811771900    8.00932297085914
H        11.70742501418080   12.99475750260776   10.16506751511863
H        12.82824683940508   11.68526547003283   10.54761901333540
H        13.50705293542454   13.42865494997048    8.74913412879754
H        12.34247229840200   12.61828060070392    7.69809361340685
H        14.85979431579855   11.44194578357363    8.95448050489512
H        14.45263512343822   11.56328590763842    7.24238769743064
H        13.23407930506124    9.74982675369023    9.37930506863973
H        13.98735776339534    9.27047378969324    7.86578739557384
H        10.91394050127326    9.50258384895778    6.09288384335077
H        11.97537023892768    7.38301907377471    5.54885651754331
H        13.27222661277691    7.63858031118470    6.70994140917110
H        11.60912934028610    7.42034172098391    7.27691860792092
H        12.64242439020983    9.63681441488139    4.38977718459113
H        13.92527823307047    9.78812555673079    5.58206598369531
H        12.74900906490836   11.09169685353727    5.38172378713259
H         9.32882339172394   10.34595791019974   10.18749893298448
H         9.59109458488766   10.91911323127520   12.49475220455428
H        10.98212689633324   11.95351105220760   12.18893997385469
H        11.09929082691674   10.20260858722361   11.93603157014106
H         8.23281036976781   12.40767314857508   10.86521698500833
H         9.65696915934900   13.37899469038818   10.50585881149285
H         8.77874942220520   12.56446238242587    9.19705553303833
H         6.47485857723694   10.06898275196181    4.34589551548298
H         6.65262577698240    8.37668397002014    3.92917309795241
H         6.90183489262829   10.00434057115327    1.99707975875622
H         8.21563044295236    8.83796170885994    2.15606604671639
H         8.84625184486622   11.35003935021055    1.79253117359098
H         9.72901721348063   10.43923926464717    3.01769498604581
H         8.80087695975424   12.79696526108982    3.60958774897397
H         7.25029018009556   11.99752575947143    3.81534213870557
H         9.68982903356378   12.00724234784625    6.89193259141329
H         8.62395679553639   14.24414914687206    7.03994091703130
H         7.81934546174061   13.99166212308800    5.49118198292471
H         7.42334960664607   12.95593630038186    6.86880573425706
H        11.06762992368744   13.76707020978003    6.09166213779867
H        10.18799207243108   13.96470358360145    4.58961972557093
H        11.17330986683515   12.51895733359024    4.84359665350446
H         9.24143621337690    7.90601620608401    6.26647079204603
H         7.53081993196055    6.34092393278173    6.75141322832228
H         6.82063388211033    7.94359502955936    6.89817954835527
H         6.45175022031575    6.93755489426301    5.48873936444384
H         9.29497977632682    5.97748379753206    4.80360836900033
H         9.82350177522145    7.39216202737413    3.89036840819383
H         8.20380950362226    6.72582893486643    3.64156639689860

