73
CSD_code = TIZLEU | q = 0 | S = 0 | Stoichiometry = C34H32N6Zr | MND = 6
Zr        2.57484311786475    2.91020875445546    3.63194941920210
N         1.72657385444669    2.21209184281068    5.48465409218703
N         3.24985333809906    0.69481656216720    3.70753048307420
N         4.71480033533620    2.77788067859206    4.51208568774038
N         3.82267492652390    3.27679224336554    1.91491162847479
N         0.87161552563894    2.57539221606938    2.55888249908805
N         2.30267851103692    4.89185830192514    4.03560500812744
C         0.98514265860035    2.62675489886636    6.51246941770701
H         0.67027918070302    3.65697992447345    6.58501112641550
C         0.71829291106058    1.57780320857801    7.40363353830796
H         0.14718889598271    1.64194302339922    8.30996574137803
C         1.34039941869474    0.45628335314057    6.88639505116684
H         1.35751332760414   -0.53380665280534    7.30101188656218
C         1.96216477272117    0.86393406488586    5.68792365962949
C         2.82672316188148    0.16902926350873    4.82549591995429
H         3.16029555446500   -0.82992396406229    5.12924788633787
C         4.43595514393377    0.23553257612416    3.14407250398518
C         4.50036118126130   -0.07624411793087    1.76974039727202
H         3.58766828662032   -0.03817059975692    1.19147654814509
C         5.68563179247212   -0.42458343045976    1.19371980167083
H         5.73154035615876   -0.67079166758827    0.14290751774968
C         6.87817240261945   -0.45428182355175    1.94843768420562
C         8.11572345276681   -0.78624018582580    1.36206651737435
H         8.13440918343043   -1.05222228656867    0.31479302673196
C         9.26894565587781   -0.76683780463748    2.09574872251706
H        10.21333029957194   -1.02233375278271    1.63838303423896
C         9.23261225955735   -0.40305814597959    3.45008522598435
H        10.15170046058703   -0.37551834006918    4.01699015799480
C         8.04779955945648   -0.08300724129296    4.05151567888413
H         8.02627313266434    0.19966216616459    5.09379625919245
C         6.83520614594072   -0.11499274337494    3.32730191677951
C         5.59267040972225    0.21244192332864    3.92495649553708
C         5.49648476736040    0.66294407222804    5.33757924430490
C         5.71685729481576   -0.22281175765999    6.42153341587154
C         6.09362641291975   -1.57015627124120    6.22502650065380
H         6.21668756585175   -1.93618311039430    5.21628105149533
C         6.30131286180830   -2.40261968112378    7.28886771690282
H         6.59106237132601   -3.42998085659609    7.12321819765496
C         6.13918036636863   -1.93536821623167    8.60161482504252
H         6.31326155925623   -2.60557200246384    9.43038087740134
C         5.75360162492500   -0.64297696697840    8.82448621747077
H         5.61314547761573   -0.27678754716663    9.83149087102955
C         5.52378408583588    0.24011909236422    7.75070636587853
C         5.08144966681537    1.56387462113026    7.96220633702544
H         4.92356780930630    1.90119163645712    8.97622642816946
C         4.84098841735883    2.39883601654076    6.91184416874326
H         4.48849361945395    3.40865728832830    7.06962815550867
C         5.05708322406954    1.96402746935621    5.58741462180273
C         5.57287552558107    2.94484601543800    3.54176934390508
H         6.64233565506189    2.77657384575524    3.71335370856147
C         5.16507548586661    3.31105125369813    2.24818395186334
C         5.92535830859719    3.60339630128440    1.09681920946920
H         6.99456904895354    3.68847643878292    1.05166502155265
C         5.02169388870626    3.75224855033647    0.06072370467388
H         5.24317996553738    3.97893430893794   -0.96458137650771
C         3.74913986169829    3.54088788556400    0.60994548038358
H         2.79476190894339    3.56788828299733    0.10579863897313
C         0.70667498118218    1.31648288609835    1.87014156901268
H         0.50871811722288    0.46796715303101    2.56333606689991
H         1.60605508179794    1.09526934535317    1.28462115046045
H        -0.14909592169279    1.36017759082482    1.17042553728759
C        -0.35731262832156    2.93618403940423    3.23748621797432
H        -1.18262411586313    3.06041828510548    2.51156099180279
H        -0.21388305643964    3.88341713702044    3.76939063902353
H        -0.68356903920596    2.16178280973926    3.96422193597237
C         2.09276451002029    5.72854814151215    2.87077029956195
H         1.61808359011989    6.68565566518862    3.15737556327270
H         1.43491891684638    5.20954351346445    2.16462749053643
H         3.04321103798536    5.98383447965738    2.35527600190940
C         3.18930789194746    5.55058761202602    4.96642126167224
H         4.20819529985229    5.71529087194567    4.54878383820723
H         3.27235655422489    4.95467140145270    5.88225794132053
H         2.79678279300204    6.54638015366241    5.24605628357995

