102
CSD_code = TIZPEZ | q = 0 | S = 0 | Stoichiometry = C36H57F4NOP2Pt | MND = 4
C         0.77200614768356   16.28237879357267    1.68442074017927
C         1.91127443173732   15.58916121450983    2.18858956853252
C         3.02494510566057   15.37820922766677    1.41119237617773
C         2.11804563790874   16.44631507482445   -0.34434230981942
C         0.95317829907689   16.71589921126451    0.33530505982596
C        -0.60035092256339   15.08788216623197    6.37504568247402
H        -1.60133238595173   14.84924513101928    6.73036791812078
H        -0.13958189613258   15.75606173058346    7.10136934286179
H        -0.01505453245511   14.16334975993057    6.35723230600321
C        -0.33404994247559   12.76982823043696    2.85025867063069
H         0.28157981505433   13.42598399462421    2.22435936158365
C        -0.79212305165985   11.57678693876051    1.98082132622641
H        -1.87153330178802   11.45468102827399    1.95584709159013
H        -0.45448296416729   11.72791112864123    0.95489276395918
C        -0.10597551512505   10.34104397171031    2.57422959221337
H        -0.76054398797382    9.85598483292749    3.30042839117091
H         0.15109636660812    9.61050452026383    1.80875355890825
C         1.11940444130616   10.90284164764570    3.28861236901065
H         1.53990572888347   10.20694307719351    4.01293805749892
H         1.89291469953708   11.15904270752109    2.56334919719619
C         0.57072979002412   12.16703427896085    3.93902399143678
H         1.35026469563747   12.85762702937240    4.25262349180432
H        -0.01730852528503   11.89098337126851    4.81612797418374
C        -2.61603059964406   12.92771464383656    4.77845155944918
H        -1.93311167782057   12.63174579719320    5.57901925546385
C        -3.73745414080343   13.80718880031854    5.38274741694358
H        -3.64355010581170   13.83383290628436    6.46889106637881
H        -3.68985556198047   14.83487139093552    5.02173124641295
C        -5.05021497485670   13.11914912387104    5.00975445473676
H        -5.84116882432447   13.32384453831099    5.72960165310217
H        -5.39149826060146   13.44613616163404    4.02629212354513
C        -4.66483303741769   11.64505824102612    4.95963428654350
H        -5.40162211094240   11.02949631795393    4.44495887733370
H        -4.53863303641080   11.25995480748476    5.97262264396776
C        -3.32131983378285   11.67516902684993    4.23356080362307
H        -3.51379214755299   11.75975332818892    3.16392872202526
H        -2.73721374973809   10.77229911742285    4.40264874462302
C        -2.79496199407591   14.35038126581476    2.25253094376407
H        -3.61258457914933   13.62498785214215    2.30698188891405
C        -3.37151739059364   15.77099297355942    2.45724708907568
H        -4.40610166477495   15.72123073726147    2.80022607542712
H        -2.78904586003423   16.31873233155931    3.20806036779188
C        -3.27986596256687   16.46814777187530    1.09347415448188
H        -4.14011350374709   17.10656749253411    0.89616338245889
H        -2.37817463359872   17.07670336515763    1.05027230826384
C        -3.14893879004282   15.32808821055062    0.08933344751656
H        -2.72619060626293   15.65704219794408   -0.85825549944128
H        -4.12221584588545   14.86991564010845   -0.10159224921150
C        -2.24104505441394   14.34546383415771    0.82148146885827
H        -1.22084299479478   14.72551350284282    0.80457501329116
H        -2.24965686598289   13.35340756854086    0.37284766856439
C         1.89615623488426   18.19975622934253    5.58125166805375
H         1.96590633466964   19.13641487661890    6.14641764169039
C         2.84952739188946   18.25109501476429    4.36988397538601
H         2.37177670022926   17.84787621353473    3.47652138232905
H         3.13524874215723   19.27943241237387    4.15097313024516
C         4.07711537941787   17.40383479822732    4.74704440435690
H         4.05520662203342   16.45036418182685    4.22158395841223
H         5.00983541714560   17.90447175644988    4.49202278504037
C         3.94405078206014   17.15529304062608    6.24824474961634
H         4.33485816283059   18.00539203852382    6.81147319729912
H         4.47044456312303   16.25769731307674    6.56747238822615
C         2.43620941709910   17.05145540325160    6.44105803108597
H         2.13901821400095   17.12711594139332    7.48658962519494
H         2.08070612304189   16.10017824551908    6.03779122367141
C        -0.74192259793963   18.50453238733285    6.68278149890343
H        -0.16958362693319   18.03274973396537    7.48895051139668
C        -2.20026222056430   17.99320881569762    6.74798552034468
H        -2.52880423196499   17.60690553342257    5.77956919712933
H        -2.27517801424449   17.17581445993808    7.46251832390916
C        -3.04916790643445   19.18252561319238    7.21358632998993
H        -3.49956083217282   19.69473272819743    6.36160032808575
H        -3.85238409479488   18.87586061898025    7.88155083030137
C        -2.04554941589811   20.10937034527420    7.89468447521688
H        -2.41182453454920   21.13097653273450    7.98965818847684
H        -1.80407507591163   19.73388022396135    8.89043408690376
C        -0.82618630742435   20.00631662191861    6.98240054104104
H         0.07985900790089   20.39040786519293    7.45021184169695
H        -1.02455629676906   20.57560989183507    6.07849802453477
C        -0.16372399273229   19.20259307671109    3.79463402571654
H         0.26186638444909   18.72595122285656    2.90592311235069
C         0.47339895422048   20.60396355251986    3.92517215108852
H         0.84460793696075   20.81124115938789    4.92740826505515
H         1.32017425595983   20.68359504762166    3.24346883916694
C        -0.62450031059566   21.59857087238292    3.51650901612512
H        -1.10360392734866   22.02770657090275    4.39914191075096
H        -0.22575289621193   22.42086335428670    2.92428845245410
C        -1.63892526014646   20.76191980189999    2.73794403839225
H        -2.62077507124662   21.23160613192814    2.69474882158809
H        -1.28729380401871   20.60031788815271    1.71818338656679
C        -1.65039374187579   19.43986272847903    3.49696851025352
H        -2.07417806834462   18.62368081685038    2.91509865712420
H        -2.22499415627903   19.54927213370486    4.41610322977117
F         1.86421699757211   15.14211556960752    3.47877114666100
F         4.07586719214759   14.71718512491964    1.91654008281720
F         2.26528074420295   16.85843328349246   -1.60866729443974
F        -0.05373029016333   17.40263124333670   -0.25727218823756
N         3.14255888514680   15.78879765392072    0.16592350381821
O        -0.28741658102454   16.50572341408805    2.33188941405229
P        -1.57856280509091   13.92943173651316    3.59577723310019
P         0.11658001603436   17.94202263139487    5.12886541873548
Pt       -0.57451872412650   15.83425813521716    4.45778697263319

