80
CSD_code = TIZRIE | q = 0 | S = 0 | Stoichiometry = C39H34CuIN2P2S | MND = 4
C         7.26621609485234    2.39520103513194    7.98617450248393
C         6.23051402181304    1.70032254968649    8.59801382458570
H         5.97715922068640    0.70248591949675    8.26830384207709
C         5.52675413686501    2.28936783788912    9.63410085919958
H         4.72600756831567    1.74350645936292   10.11322172217366
C         5.84450011791999    3.56828849747800   10.06010483356521
H         5.29245108945790    4.02076634615092   10.87101451946867
C         6.87010669451686    4.26928807075242    9.44399082985129
H         7.11624829155771    5.26909043063213    9.77031302633507
C         7.57235367400643    3.68980136453942    8.40636833909711
H         8.36804373415536    4.23316683864376    7.91118773381988
C         9.89190072733004    1.89888022512904    7.15026877993102
C        10.23156802390900    1.55047605964509    8.45517710106007
H         9.46251023951538    1.21690692835664    9.13978130161271
C        11.54785102003264    1.63445935110796    8.86641244806568
H        11.81252723030331    1.36253576334294    9.87831337712342
C        12.52799958633077    2.06762271375393    7.98548801101026
H        13.55485614122405    2.13154846769952    8.31446128269453
C        12.19166240515188    2.42596459946518    6.69134758543472
H        12.94993318288476    2.77474238215284    6.00645698230976
C        10.87512592883459    2.34481450294938    6.27499513071447
H        10.60409294028447    2.63569597792622    5.26889919908005
C         7.84131393428617    0.02044599803148    6.48822728120412
C         8.78293497708403   -0.95848540321870    6.78892713610338
H         9.76220319018731   -0.67664237941806    7.15066470681740
C         8.46656837177943   -2.29366391898050    6.61116952163716
H         9.20064630897821   -3.05184063017226    6.84436395936237
C         7.22053418915937   -2.66131759721567    6.12965558524792
H         6.98283500855378   -3.70537736541128    5.98810594386484
C         6.28319409475921   -1.68924003276508    5.81933750353887
H         5.31538754680759   -1.97189916240182    5.43211314276967
C         6.59509357671978   -0.35401160219523    5.98651334770210
H         5.87852982729671    0.41289376563828    5.72094516503839
C         9.65622801020938    1.18838666739154    2.91285571755627
C        10.56939244296227    2.04513286019077    2.30240338800604
H        10.21262868372411    2.87040035039679    1.70098599327029
C        11.92692854719308    1.84717898686503    2.47712461373653
H        12.62988890988519    2.51416056366824    2.00003216648628
C        12.38424894820636    0.80758869080705    3.27067831819385
H        13.44510731223187    0.65794148359699    3.40785362788030
C        11.47977927605985   -0.03227076476204    3.90130049993066
H        11.83303032224794   -0.83363362608894    4.53447749419383
C        10.12221328067602    0.16175645653093    3.73387463792013
H         9.41334030949791   -0.47955372082710    4.24196296791232
C         7.04273618648905   -0.00389097045546    2.60812683022593
C         5.66705744014275    0.01205017933311    2.82540257333855
H         5.19804642418228    0.92547070066643    3.17040889785487
C         4.91523217948559   -1.12606202259992    2.60886705700657
H         3.84785830461373   -1.10811405127819    2.77600793179483
C         5.53446986952911   -2.29050527025176    2.18317709365718
H         4.95122719603116   -3.18518778607044    2.01976776100103
C         6.90170683761590   -2.30808274936873    1.96358712819403
H         7.38277328233873   -3.21505250727143    1.62572274347383
C         7.65889581056954   -1.16858047100363    2.16830660993725
H         8.72452960288070   -1.18992659356865    1.98645335587470
C         7.63066910046742    2.36352854146326    1.28553859649918
C         8.10050550065484    1.78410336168052    0.11031095204053
H         8.64536867016743    0.85036999330320    0.15131027277598
C         7.87266227455493    2.41132791475776   -1.09883929032508
H         8.24037797627258    1.96682325610251   -2.01261721564701
C         7.17486863324983    3.60960302718689   -1.14261543306324
H         7.00361807153235    4.09597622805902   -2.09180394370168
C         6.69815438808206    4.18197562404726    0.02400609427038
H         6.15600626486669    5.11522488419322   -0.01034984610852
C         6.92322006037258    3.55839572427447    1.23844275389076
H         6.55650461398216    3.99534167314061    2.15790774169249
C         5.03176900612971    4.29435834556607    6.25799566977510
C         5.29785760087266    6.25908059172428    7.25799301612052
H         5.74450481232514    7.21369702102222    7.43987143006322
C         4.25754653680724    5.64205303724951    7.85839787372237
H         3.62495530903887    5.95608482365630    8.66125397625157
N         5.76204642612778    5.42783739627400    6.27384558094780
H         6.57842534653705    5.59373407464334    5.67800234213046
N         4.09653567469869    4.42801362028810    7.23336887474258
H         3.41440208825445    3.72181223040020    7.45071178167285
P         8.18285800681514    1.80589664231396    6.53091974006865
P         7.88833882828382    1.58309314413463    2.91084950880942
S         5.17332465408412    2.98690655424697    5.24557513750467
Cu        7.78241444429041    2.97810543471146    4.65308320299541
I         8.68202343925184    5.32105645657416    4.44134525047459

