61
CSD_code = TNSTPT | q = 0 | S = 0 | Stoichiometry = C50H2N2O4P2Pt | MND = 4
C         0.74050757855886   -3.78682018026215    1.16057771904359
C         0.99231791629797   -3.76067220150531    2.59801469678904
C        -0.08993580757457   -4.24966725985826    3.42780622132189
C        -0.04159180782673   -4.17391546533432    4.74839381761167
C         0.99515102006080   -3.70579272105629    5.54314783291210
C         1.98365572942912   -3.29120755647580    4.68108452448755
C         1.99408579729777   -3.27838174793441    3.39625168158490
C         0.28277182953297   -4.92611277960506    0.58159743319385
C        -0.30417354502275   -4.99256891490594   -0.76085589990029
C        -1.69675930439520   -4.80639738795413   -0.87485473336204
C        -2.46654729876840   -4.96543769432330   -2.03207333396662
C        -1.88242980510337   -5.30063965416703   -3.27737105106548
C        -0.52297318510767   -5.41895885325176   -3.11799442587642
C         0.11401430513660   -5.28413744310359   -2.02398808256198
C        -3.45928130403445   -6.14274870627331    0.84836143729863
C        -2.26765976179843   -6.46392378430600    1.72620733502550
C        -2.05818527402020   -7.72862724108398    1.51872004898098
C        -2.52206038668337   -8.72149956787081    0.75751661372200
C        -3.37114315860684   -8.28429443094904   -0.11476732007752
C        -3.85568294543324   -7.02194894660772   -0.35725092261307
C        -4.82832978991867   -4.31890415738887    1.14726343306771
C        -5.88973321987017   -3.58509013647745    1.55164487315473
C        -6.73274547903922   -4.26696282819674    2.29603624421409
C        -6.66570234039657   -5.49675340433214    2.69095754337249
C        -5.65701251170471   -6.27197927469560    2.32943986872788
C        -4.70001582644212   -5.72036745498696    1.55673000985069
C        -3.87159908883904   -4.85485098927601   -1.46655129057382
C        -4.43568383306864   -6.28777986168852   -1.37317433455631
C        -5.49794187711185   -6.44040186874530   -2.25151728550537
C        -6.01717166064072   -5.41923293868182   -2.81908066618841
C        -5.81460908904366   -4.10956303029468   -2.70866907347175
C        -4.73647702758262   -3.71680679447463   -2.00699983518374
C        -3.20132273519812   -2.38375426275259    3.17606402200679
C        -3.03776553436371   -3.81494455060565    3.43854406575634
C        -3.76163429750115   -4.40463985400164    4.40465435572921
C        -4.58575591030331   -3.60949562773648    5.05071189138622
C        -4.73958613952668   -2.34595972916042    4.82434281334858
C        -4.08912892268594   -1.66071401907598    3.91098686004311
C        -2.94473058229491   -1.55988998432358    0.39123600603938
C        -3.36100660735237   -2.65894480860822   -0.35551678719494
C        -4.27372932499212   -2.48509290495258   -1.42199845379948
C        -4.47142242867832   -1.12781572356710   -1.47917857051280
C        -4.35477187937245    0.15028410470219   -1.06412847089488
C        -3.55067946048023   -0.47212681924745   -0.17787026009099
C        -0.92394307647618   -0.76259299359670    2.36569855621748
C        -0.46561477181441    0.27589573042112    1.56256694777843
C         0.42542266769490    1.16528859420548    1.96735325707241
C         0.83357595271878    0.90478532367434    3.19233487607427
C         0.55795075163416   -0.01394437698805    4.09686664309114
C        -0.33714131158326   -0.86378837438838    3.63245873420953
H         0.87628724327672   -2.87247629133428    0.58676657637523
H         0.43688572105608   -5.88495642870114    1.08806674871568
N         1.00667824519225   -3.65472402429199    6.97160871448904
N        -2.59049570145176   -5.50192627724025   -4.50327012222650
O         0.00704186996426   -4.03166093593228    7.54375252041733
O         2.01109589271591   -3.23997925600228    7.50455857077103
O        -3.78322830147152   -5.26276812755254   -4.49454420035711
O        -1.95759092914212   -5.89156051772398   -5.45516445764773
Pt       -1.67521200932214   -4.40629550506127    2.07417019900295
P        -3.19298393883155   -4.37683327869034    0.21445398698980
P        -2.01195332963390   -2.04282380546950    1.86487189742847

