48
CSD_code = TOBBEU | q = 0 | S = 0 | Stoichiometry = C15H24Cl2N4O2Zn | MND = 4
Zn        0.09533033874369    1.86711966527376    6.31901528430077
O        -1.33611260693635    0.96293276218620    7.41271002079288
C        -1.47753135355720    4.25645020181696    5.68149538988336
N        -0.95779735248963    3.61484856446853    6.70907298553504
Cl       -0.09933412331689    1.42525830991625    4.16649760083804
Cl        1.75940625350203    1.61117885455582    7.73505227849322
O        -1.34267592208859    0.54454147546187    9.59833183138037
C        -3.76984467959138    3.72673426099676    6.33466589970048
H        -4.65833239019082    3.60435686315413    5.71242342779286
H        -4.06223786953667    4.19154176454336    7.28244993586010
H        -3.34861428304675    2.74425822535606    6.53665991446473
N        -0.69609759894803    4.66458684585538    4.66332185142479
C        -3.34307786865101    5.70710661633504    4.97877256281057
H        -2.53434373859059    6.33860020031159    4.62167734963286
H        -3.93005469950407    6.26883746380772    5.71290551847125
H        -3.99982998520344    5.45477859142339    4.14177754989713
N        -2.19687599123787    6.75980227541660   10.09349975172451
C        -1.10223105947964    4.52457018876636    3.27911234989807
H        -0.91523284027675    5.45267923198081    2.73517732271456
H        -2.15245847727383    4.26267802529424    3.21303075149567
H        -0.52730928464085    3.71310850240849    2.82577983873374
C        -1.41534220180465    3.82158565872976    7.99773972204532
C        -1.55043721400635    2.77711020105117    8.93876482893144
C        -1.85880041310845    3.11718221614798   10.26379074655124
H        -1.94004056826903    2.32000202395605   10.98512131436131
C        -2.07125010270841    4.41021638217572   10.65561716729915
H        -2.30773489621706    4.60812178618762   11.68667012594797
C        -1.96764946512284    5.46718772700650    9.72610315486364
C        -1.63039800588069    5.13426786587976    8.41089604038836
H        -1.48492940256676    5.90560909617257    7.67144319951620
C        -1.38501567280574    1.38754092613002    8.57288651735884
C        -1.98142601642012    7.83286157440456    9.15390102339882
H        -0.94280673232948    7.86531247851624    8.80869927655624
H        -2.21286703119094    8.78330220623015    9.62794801548689
H        -2.63517109635976    7.72178472721350    8.28471251669625
C        -1.07714912241857   -0.81503512386614    9.27962470213422
H        -1.85204155558563   -1.21347012344147    8.62144002321796
H        -1.06467570568541   -1.34761429977765   10.22711556582576
H        -0.10921336267534   -0.89724985604152    8.78013877087946
C        -2.42688659915139    7.09396983596577   11.47904718448057
H        -2.58416863053827    8.16558260714255   11.57230899983058
H        -1.57531091126440    6.81609882004819   12.10807349523149
H        -3.31995009465308    6.58861688319595   11.85454083424920
C         0.73757538398281    4.74808198108056    4.83858094794406
H         1.23978765122662    3.84249124890118    4.48954688661638
H         0.97549023661348    4.90440117857710    5.88845896399761
H         1.10210579759516    5.59511623526646    4.25416734407560
N        -2.81053873634371    4.52395685381862    5.60963321627155

