43
CSD_code = TOBBOE | q = 0 | S = 0 | Stoichiometry = C14H21Cl2N3O2Zn | MND = 4
Zn       -0.70175944958391    3.83897839863826   10.30549041392420
Cl       -2.23991629491658    2.50509481368499   11.14529291880128
O        -1.08056172576832    5.39021422028978   11.56604344018970
N        -0.40626338080892    6.71642231083876    7.56414161292937
C        -0.68780624588876    5.41737197964057    7.84640643016803
Cl        1.44533351174635    3.58369998570588    9.89137484919416
O        -2.95524247973353    5.60132801000158   12.74467114952800
N        -0.11972211250612    4.46174525711832    7.08941587089258
C        -0.53131241038216    7.74327755205247    8.57035432313015
H         0.28989717936532    8.45123560422367    8.44448833441997
H        -0.45694962971535    7.29742673371959    9.56008103266273
H        -1.47997222925140    8.28488764467038    8.49151253323745
N        -1.48978452747814    5.08786571166110    8.84538233548031
C        -0.14902835825618    7.19569466577748    6.22694545274705
H        -0.26353031452734    6.38848614636047    5.50911244018725
H         0.85516227858463    7.61856454830580    6.13869886475709
H        -0.87178717205803    7.98198751455446    5.98775092058314
C         1.26192359873224    4.53568330706444    6.65867517420160
H         1.33779755750850    4.32280968328024    5.59059184730291
H         1.84250251811584    3.79897304098330    7.21924508349604
H         1.67811143290475    5.51392209894969    6.87181572144470
C        -0.65204663282084    3.11673399753265    7.09732191388464
H        -1.70900584839310    3.13516369070139    7.35411856848582
H        -0.12167907589311    2.47739291885492    7.80795056451319
H        -0.53110143428028    2.69771731145729    6.09676210486244
C        -2.61843084846200    5.82527197885952    9.13683842971277
C        -3.42303532950381    6.28435419927943    8.08225096851399
H        -3.08902904062660    6.11233750904668    7.06839822047711
C        -4.62400045530455    6.91190916884628    8.31337091126108
H        -5.21615434930098    7.25173093736197    7.47543441179772
C        -5.10003427362833    7.10311449034495    9.61152021820307
C        -4.32109728277760    6.65454341007722   10.65840041087551
H        -4.65496517349693    6.78796684901466   11.67545979812185
C        -3.08391456707570    6.03663999690155   10.44911864302632
C        -6.42696889695412    7.75634115878979    9.84589202439669
H        -6.54077113576225    8.63630139480992    9.21564672410101
H        -6.53632548874077    8.04985481812860   10.88619193860439
H        -7.23156985313825    7.06355917015730    9.59998195622980
C        -2.28791713175059    5.63163882679024   11.60672618798607
C        -2.25207087262828    5.10597679259506   13.87833264148748
H        -1.96528544767337    4.06624322655558   13.70479435088858
H        -2.94325823221582    5.17680695280455   14.71399040927350
H        -1.35483037565510    5.69973197356848   14.06310785401980

