66
CSD_code = TOBBUJ | q = 0 | S = 0 | Stoichiometry = C23H38NiO2P2 | MND = 5
C         5.51932633173088    0.54660476681121    7.06696916807753
H         4.50072833792371    0.56316719271550    6.68107135634395
H         5.74181723520674   -0.46699396930355    7.39235351919871
H         6.19591850040120    0.80586573271274    6.25605767335582
C         5.65371798410644    1.53877668827480    8.20960060318865
H         5.03471310808147    1.22662988958182    9.06012471063671
C         5.24445036195370    2.94628768671538    7.79434645591964
H         5.83282247545779    3.26937617815032    6.93683220878503
H         5.42292910810102    3.63880793232489    8.61527346246474
H         4.18953575371092    2.98311525471008    7.52666096717283
C         8.04637381246993   -0.02853733633836    9.17937787556921
H         8.02094884113555   -0.58023003295016    8.23612405742763
C         9.48862873875064    0.14378905485657    9.63513258248438
H         9.51069668100418    0.65820542526801   10.59429909760475
H        10.04444389326942    0.74331985040946    8.91182585272977
H         9.98283744307937   -0.82046364069305    9.74595891009084
C         7.20118550118759   -0.72310640719183   10.23602433908330
H         7.65479762817152   -1.66782237679889   10.53326948583015
H         6.19682626039410   -0.92425123478551    9.86706423719401
H         7.12367908435063   -0.08360151873810   11.11438082096473
C        10.99249879025069    4.52472810395499   10.37129037095392
H        11.30669609317065    5.52113605223582   10.70154372373226
C        12.22841961477102    3.69608274983521   10.03098803780526
H        12.83758785446912    3.52160912931621   10.91663371589088
H        12.83901616033840    4.21137112355195    9.29105659659316
H        11.92727215303917    2.73103078292460    9.62231507946019
C        10.14730289100636    3.84018097767982   11.43443887540185
H         9.64742180064588    2.97185783763257   11.01357977380683
H         9.38073382440247    4.50523816016343   11.82247765602517
H        10.77298017548284    3.51690446975976   12.26547279172795
C         7.77062430116320    6.00085007828270    7.99192437590075
H         6.73911022993684    6.29221724534951    8.18184037756339
H         7.76849129421474    5.12192671131659    7.33539208483825
H         8.26783545135238    6.81824044789453    7.47070987898095
C         8.50713332621727    5.67497283340026    9.29078340950756
H         7.90812662474167    4.96796295668328    9.87014939046504
C         8.78706806146305    6.93554925627135   10.09613774701029
H         9.50979756671816    7.56048385736766    9.57450435006675
H         9.18162070524980    6.70075860454347   11.08095288123355
H         7.86815599448407    7.50593275740024   10.22545612551879
C         8.35825558201899    2.23378086555273    7.51533832411387
C         8.62431435911976    2.03559058861183    6.29051833293499
C         8.49047593059580    1.36880279690200    5.02930848749663
C         7.82271623005332    1.97069100189573    3.96095228397061
H         7.42726498982311    2.96989338329993    4.07882368481040
C         7.66754383382801    1.29116446367611    2.76890562528451
H         7.14547735652247    1.76212864359951    1.94852431280270
C         8.18211114094486    0.01307710573676    2.61981344466149
H         8.06364150975725   -0.51281590714015    1.68412655493685
C         8.85349675405105   -0.58667748565786    3.67361644360175
H         9.25847569164561   -1.58191517122211    3.55952306752274
C         9.00962511175278    0.08121463302098    4.87188607189572
H         9.53645343488799   -0.38085972816347    5.69467229615590
C        11.22072631673636    5.89597743100437    6.77840476494895
H        12.17028257640326    6.42001918921320    6.61368794852169
H        10.43069591283110    6.42298957856080    6.23005380282514
C        11.32934844129121    4.46672999149933    6.30007913545950
H        12.23279535022332    3.95517465261067    6.63807308576226
C        10.62252821339709    3.95770919164228    5.23686082792852
H         9.93699250563675    4.59700111346293    4.68365138500714
H        10.99200615033707    3.09133008823739    4.69709820175320
Ni        9.76018819428755    3.44267394432705    7.03687934090427
O        10.96725691832149    5.96597436477741    8.17848650371677
O         7.40379809909216    2.51586507566098   10.11177063359579
P         7.36972822363023    1.67970155313907    8.90446747805641
P        10.04663117922844    4.75470536445313    8.79578333473123

