74
CSD_code = TOBBER | q = 0 | S = 0 | Stoichiometry = C26H42BP4Rh | MND = 4
Rh       -0.11083430122819   15.23151826733880   13.42653249555972
P        -2.28149388611024   14.65999313854413   13.03676138033828
P         0.29066346905209   15.84854014538602   11.26586774618698
P         1.53672116857717   16.55412156660984   14.31729833906932
P         0.02484822292251   13.56123364699422   15.00788078969985
C        -2.76713132113926   13.19094154333062   12.07277309856823
C        -1.78798973150417   12.43058542851913   11.44076270875054
C        -2.12566616441165   11.29732809721688   10.72444097707712
C        -3.45239436104101   10.90814207166990   10.63644645570235
C        -4.43374278599446   11.64989007056967   11.27452585919636
C        -4.09543483093074   12.78308603119746   11.99222632123626
C        -3.01591782212268   16.03588914121579   12.08937628546015
C        -2.54835564594828   17.30817821864801   12.42290129796707
C        -3.04457008359665   18.43412526522839   11.79829845498859
C        -4.02158155414095   18.30962739661913   10.82162544125260
C        -4.49379246292040   17.05295364967965   10.48376054961169
C        -3.99851043542424   15.92247716269290   11.11131988262314
C        -2.54184430273434   15.81100344019781   15.64734688093412
C        -3.02235917021078   15.94680663066818   16.93655163376885
C        -4.03105115680160   15.12020283058133   17.41613871302189
C        -4.59045892657313   14.11949411336978   16.63255818931312
C        -4.19275873367513   13.89172876316946   15.32538366992887
C         0.85133422951024   17.50786062402281   10.67934035697445
C        -0.84408250676102   15.50146364964072    9.85869355822570
C         1.72942783380291   14.82843280096839   10.71925149652431
C         1.88836775406783   16.51537252882806   16.12410943301167
C         3.27933582153469   16.68830756418870   13.71795745074460
C         1.01726150493464   18.32008662609135   14.23306952113372
C         1.69615782586211   12.77760322646054   14.92353610403727
C        -1.00805543320778   12.06578187892608   14.75842307166664
C        -0.19615002226632   13.70042057462465   16.82573467985101
B        -3.13803137665924   14.77257854831284   14.75215157316900
H        -0.75158495865997   12.74301574436869   11.52701748400963
H        -1.35764693365620   10.71569222242505   10.23321687658220
H        -3.72060816554120   10.02467315655394   10.07538024032627
H        -5.46714332259255   11.33899636856788   11.21388199264089
H        -4.85653155400893   13.35406744549613   12.50409447705991
H        -1.78408956999158   17.39660247814773   13.18986258946561
H        -2.67426378250126   19.41406102749963   12.06782690979857
H        -4.41174201718563   19.18784090346229   10.32776012683167
H        -5.25396525354049   16.95069438762087    9.72177035756004
H        -4.36873986089531   14.95005752718689   10.82068103310139
H        -1.72312871596793   16.48054454277498   15.34888997857941
H        -2.61219503477546   16.69829616100680   17.60745698538344
H        -4.38318745629558   15.25256159129301   18.43221872476795
H        -5.36123039315885   13.49755017162519   17.07973521046697
H        -4.68330401433643   13.06764346525331   14.81126681882707
H         1.72415729139683   17.84147195175438   11.23619898252477
H         0.04149796507714   18.22169653390554   10.82384191048346
H         1.09840937072791   17.46269289410766    9.61921770781545
H        -1.59854965413365   16.28282344157222    9.80059008827831
H        -1.34599246017085   14.54727004261138   10.00179841848779
H        -0.27690855005902   15.47864500604432    8.92814917506459
H         2.54664958987166   14.92876211419651   11.43086658042593
H         2.06743965907527   15.12654170079402    9.72771791065841
H         1.42301421181409   13.78362803802343   10.69561045272058
H         0.94309869703740   16.57748633217864   16.66051514859909
H         2.51868871547307   17.35897841450932   16.40550046757465
H         2.39050392177775   15.58883083298802   16.39516714267418
H         3.77958973420956   15.73152102030991   13.86188410226825
H         3.81575256608105   17.45824188134727   14.27101400741959
H         3.29715724292643   16.92915894034829   12.65744479948494
H         0.12271964140414   18.43478407150995   14.84467548444677
H         0.77331038551319   18.60383546787332   13.21299531694170
H         1.80053253405251   18.97219173920898   14.61838733639534
H         1.86947638213707   12.43980232269655   13.90226620596753
H         1.76104962680668   11.92764516694213   15.60131488232062
H         2.46479552765376   13.50470482965915   15.17928490596060
H        -0.87890528221293   11.67788670973018   13.75022279536115
H        -2.05193803529057   12.34664842749489   14.90005579955744
H        -0.73629454444527   11.29725853743370   15.48151809699710
H        -1.20852851991521   14.05741695771239   17.01056772994367
H         0.50957469527499   14.40280842928738   17.25838913576013
H        -0.06065049383948   12.72269636095250   17.28680119487655

