83
CSD_code = TOBDEU | q = 0 | S = 0 | Stoichiometry = C38H30N12NiS2 | MND = 4
Ni       13.03219507575823    6.89820827349070   12.50758872325087
S        12.54210344194840    6.26747247286992   10.42485186515900
N        12.33577331727714    4.68891395342717    3.69517891731833
H        12.31436405433149    4.50813559971350    2.70584014192238
N        13.18841450490762    4.60963624414217    8.19210963612816
N        13.71793478563375    4.17188110829182    9.33159831402115
H        14.31520674474156    3.34203388617346    9.35747925921066
N        14.05627884411169    4.40822293943363   11.58387951581222
N        13.81710351840765    5.15271777074830   12.69227542030153
N        15.57635780552786    1.26164447517841   13.82538147529191
H        15.93082103239583    0.42181715979730   13.39889055513852
C        13.02786471730587    3.96159284022938    4.61581354023626
H        13.61544783389247    3.11320415377270    4.31861312232324
C        11.67473236427496    5.70782913075102    4.32986801666640
C        10.84654834857680    6.69795711630412    3.81804229958530
H        10.63458339890378    6.75889838682452    2.76021050624122
C        10.30481354941048    7.59532461893214    4.71407350378066
H         9.65289704522216    8.37764335843407    4.35298727394218
C        10.57756404498601    7.51234929852471    6.08203807278106
H        10.12059399238634    8.23108606496973    6.74609671940513
C        11.40491964042189    6.53638412700651    6.59478599337179
H        11.62062249090059    6.46490610041362    7.64821937685447
C        11.96429763682999    5.61834212472850    5.70939615664345
C        12.83813892687862    4.48815562730841    5.87185786869208
C        13.40737334690650    4.00560076721508    7.09231501969191
H        14.03797575166308    3.10657359342610    7.03519052455456
C        13.52036732493139    4.85858664901809   10.48710736324699
C        14.12392145474115    4.59878183300558   13.83127685325901
H        13.94748810704613    5.17628128518773   14.72800274833565
C        14.68224994879021    3.30619715353936   14.04864583269751
C        15.06933447993786    2.32839452423388   13.15487435971069
H        15.01082808149490    2.34868085585728   12.08575346380315
C        15.53708230398657    1.50425168172335   15.17404765314440
C        15.94227789043731    0.71688629337375   16.24278390139063
H        16.37153870850710   -0.26193678886912   16.08576951857990
C        15.77416047381246    1.23318403827374   17.51100918362490
H        16.07816242354845    0.64921817326230   18.36709202441273
C        15.21374254025325    2.49638332453747   17.71115821020653
H        15.09474318022674    2.86348026505397   18.71992027878270
C        14.80931985746032    3.28020524150673   16.65139305195524
H        14.37356601382537    4.25267507155993   16.82108667226409
C        14.97468079551580    2.78566578221731   15.36113849298705
S        13.52498214614012    7.53033957478290   14.58924918153865
N        13.73073254564669    9.10837474888707   21.31914751909063
H        13.75213444173144    9.28915003110299   22.30848724116591
N        12.87815648498027    9.18773940306038   16.82219154927975
N        12.34855908524835    9.62547427601085   15.68273094926155
H        11.75118118438208   10.45524319257095   15.65689138373995
N        12.01034630386338    9.38922454569501   13.43040974147672
N        12.24964581485148    8.64467398217521   12.32210024057609
N        10.49032176262387   12.53562030984705   11.18890783517640
H        10.13586529680823   13.37545046430917   11.61540265740464
C        13.03863214605649    9.83568921699828   20.39851323730145
H        12.45103349878807   10.68406547160036   20.69571812102390
C        14.39179705602907    8.08947756646490   20.68445531323828
C        15.21999297032173    7.09935989546053   21.19628114876721
H        15.43193290577655    7.03840037199848   22.25411692405881
C        15.76174522283493    6.20200474057467   20.30024894853644
H        16.41363777019675    5.41966854143184   20.66134116235872
C        15.48897159896747    6.28496201847547   18.93228786351782
H        15.94596372348985    5.56624083031007   18.26822767916444
C        14.66158829344374    7.26090548025096   18.41954186610397
H        14.44591142895739    7.33240064185744   17.36610527298604
C        14.10221648353609    8.17895358187441   19.30492832054837
C        13.22838542091035    9.30914905935468   19.14246342869443
C        12.65915523653821    9.79171992161724   17.92200848793184
H        12.02850288532648   10.69071012882124   17.97915496440551
C        12.54618484615786    8.93883652181183   14.52719311403897
C        11.94292370945281    9.19853217337419   11.18302896213234
H        12.11900771601574    8.62080061882377   10.28637179789736
C        11.38448648914851   10.49107900317607   10.96562929443643
C        10.99732084184906   11.46885226853584   11.85940732066739
H        11.05581349529760   11.44856088234139   12.92852972894656
C        10.52957627027916   12.29301326249132    9.84024278973986
C        10.12437336249154   13.08038500135436    8.77151227724228
H         9.69516455268175   14.05923370491021    8.92852345154148
C        10.29252017248818   12.56410625356818    7.50328499425811
H         9.98853661795397   13.14808460831215    6.64720371655732
C        10.85299731349458   11.30093622330802    7.30312724144863
H        10.97193221645877   10.93381566644495    6.29436478642038
C        11.25739736723125   10.51709694201384    8.36288830879711
H        11.69307988967552    9.54459387976077    8.19319481057385
C        11.09200363375822   11.01160841865610    9.65314494121123

