104
CSD_code = TOBDIA | q = 0 | S = 0 | Stoichiometry = C39H57AsCl3N2PPt | MND = 4
Pt       12.71869910438604    9.42086940066585   14.61324537887343
C        11.64579312798943    9.32411176858871   16.31855848255875
N        11.61745352472592    8.34278797437035   17.24907841591321
Cl       14.52830664229492   10.15262579649872   17.78914474701500
P        13.67110226616407    9.59447262517562   12.49209469273848
C        10.59029990211206    8.56183843690748   18.13243545173624
H        10.38035847227648    7.88841057115847   18.93673478534697
N        10.62739196283437   10.15209355017986   16.63264831298854
Cl       15.54754965630224    7.69078595225658   15.96390202247258
C         9.97142208935851    9.69667756953828   17.74613557774130
H         9.14465032096719   10.22403999795697   18.17431157916022
Cl       10.56619763141403    9.26990228816488   13.46271481218650
As       14.87871123027897    9.72010457336802   15.68633872637629
C        12.51120771261030    7.24798675101216   17.41009608862795
C        12.63692268729719    6.28950660019707   16.39885916345714
C        13.49358627269583    5.21812060215349   16.59556378254728
H        13.59888321302558    4.48325234861014   15.81029250878864
C        14.22237333324718    5.07275899102379   17.76610908460176
C        14.05730684140440    6.01882587252001   18.76381969094719
H        14.60792688403190    5.91736000596160   19.68816429572550
C        13.20356961201020    7.10393404457893   18.61586146608999
C        11.87754048076487    6.40325791597093   15.11789968769810
H        12.30778405209159    7.21183869815295   14.50274328666850
H        10.82886518834360    6.64379245702150   15.29022869292444
H        11.93859797069850    5.47912458194698   14.54902005239744
C        15.17777789432585    3.93233210666253   17.93482127550037
H        14.80940808160927    3.04004986455202   17.43337624457622
H        15.33726255769147    3.70926615549552   18.98699148059791
H        16.14036765712632    4.19302862828508   17.49362811091509
C        13.05829117643634    8.04806513734019   19.77359318216423
H        14.02551801922759    8.19602249354753   20.24898818676535
H        12.38403641458674    7.62157674627905   20.51837017196774
H        12.67604110699232    9.01931004251210   19.47514530329614
C        10.17411593723445   11.29778230270635   15.92051052871462
C         8.90342540338847   11.26909034027518   15.33650878039397
C         8.46001287990324   12.40053581973893   14.67071404623775
H         7.48962501812102   12.37956246903416   14.19598670598521
C         9.22617932549951   13.55479111263140   14.59668046443736
C        10.46464385442318   13.56673294600904   15.21642898370806
H        11.06188633733032   14.46680362004115   15.18995625882186
C        10.95746771447076   12.45112554284693   15.87889874719296
C         8.02719944848968   10.05567197842876   15.40453577175058
H         7.24357244989578   10.12193787763947   14.65462802254330
H         7.55516580309472    9.96428115148343   16.38294657744720
H         8.60684784236189    9.15632174016880   15.21078691479599
C         8.70541432541830   14.76727589857598   13.88661332355343
H         9.50815070693855   15.46868968245619   13.67176077633278
H         7.96612825841566   15.27473870541502   14.50704326594908
H         8.22086949497897   14.48671862858651   12.95353960279986
C        12.29951926581414   12.49738083787344   16.53751749007449
H        13.01210195819378   11.88378190736730   15.97719031246074
H        12.25660372900187   12.10416517953137   17.55175590481544
H        12.67742436889336   13.51566325446176   16.57322023563401
C        13.70294442494823   11.41120512591790   12.09354704979805
H        13.98783314092639   11.54235375725096   11.04174086541854
C        14.69312936755655   12.16168939978658   12.98493660066140
H        14.39465591896401   12.03103181526732   14.03148849514375
H        15.70502213428428   11.76821796243629   12.87704549224930
C        14.69135357216919   13.65095881021484   12.65266540125854
H        15.41409131011111   14.16805986715214   13.28701450001805
H        14.99717190481867   13.79299936872767   11.61262534455977
C        13.29965733934458   14.23612788976020   12.86067496661392
H        13.02985108244308   14.13883053904429   13.91292456257113
H        13.29562711575719   15.29799233646750   12.60440409725429
C        12.27929137885541   13.48805821104876   12.01021230963185
H        12.50496031795854   13.64410105821850   10.95157222267805
H        11.27722156457343   13.87657126449239   12.19999686287723
C        12.30657863413134   11.99519438592613   12.31755447492123
H        11.56884559793805   11.48813119296842   11.69391269297538
H        12.01729262176292   11.82935661751687   13.36219228916329
C        15.46166677984273    9.08735513329403   12.32391229863552
H        15.91086083382367    9.49091285295878   13.24746151408583
C        16.29237296604417    9.61646642013343   11.15627348069886
H        15.98072585705646    9.15168991530493   10.22180007362011
H        16.18511729792091   10.69562481805334   11.04504581410114
C        17.76122208742970    9.27279808306699   11.40519130390065
H        18.37417705802473    9.65726242484347   10.58674470430437
H        18.09403739644990    9.75319931581709   12.32882836339385
C        17.94558937055654    7.76262682206594   11.52605352246436
H        17.67859038855707    7.29013880406140   10.57706239362505
H        18.99339124367799    7.53198373613351   11.72826805042634
C        17.06527959697950    7.19892493875074   12.63784137199644
H        17.38271617212417    7.60696362318062   13.60026322184038
H        17.17184040499233    6.11308777850211   12.68238848979330
C        15.60455667541886    7.56840940954473   12.39787898831858
H        14.98187224939391    7.17437188117268   13.20631660735543
H        15.27423962128197    7.11823352468746   11.45974517314855
C        12.71232043748484    8.88331455371502   11.05951969450331
H        11.78275624198035    9.46647112166359   11.08978942010348
C        12.31013518695449    7.42443353230626   11.28386283867958
H        13.17804727788813    6.76659655286765   11.21990307524390
H        11.86646365703079    7.31844691156155   12.27375844899816
C        11.28099836283763    7.01041259500444   10.23508742633761
H        11.00059584350465    5.96579377526594   10.38681711384051
H        10.38317878888160    7.61847553915041   10.36254888021808
C        11.83352638753811    7.20080106684408    8.82599107229692
H        11.07307838679185    6.93752541799974    8.08775211315115
H        12.68663094794983    6.53330777856591    8.67725333685361
C        12.28176337585978    8.64450466141120    8.61896075826864
H        11.41805410735448    9.30837771708402    8.70050314312425
H        12.70410337522769    8.76497419186179    7.61821730793166
C        13.32257076020094    9.03191057738977    9.66883129784092
H        14.17818631365132    8.36256801234436    9.56479528656963
H        13.65984991354942   10.05457536732755    9.48958773150077

