39
CSD_code = TOBFOF | q = 0 | S = 0 | Stoichiometry = C12H20Cl2N2O2Pt | MND = 4
Pt        1.74573662214838    0.43562546785204    0.56475862606125
Cl        0.86359805920537    1.44890304864134    2.34125445625118
Cl        1.95896492495137   -1.44405766381037    1.75037101852584
N         1.51420296737274    1.88742677248991   -0.54887524060051
N         2.83103981201842   -0.23461630417705   -1.11695299355138
O         3.41899879703204    0.96934956499458   -1.55884981534597
O         0.57032610024048    2.67142872977571   -0.56758967437462
C         2.43997768969984    1.97816452206532   -1.69959419183644
C         3.14863382099238    3.33662105886142   -1.66408628653579
C         4.00846769548245    3.53659468788265   -2.90731222625216
C         3.17077253779771    3.39177271403598   -4.17385715669100
C         2.52253158760182    2.01204317512571   -4.21810915405064
C         1.63440272924969    1.79997473506631   -2.99751171175731
C         3.34231386249088   -1.32299471711738   -1.54164339244603
C         4.52387505169223   -1.38499268383804   -2.45364650730810
C         4.21107427542313   -2.23674418191033   -3.68850397460001
C         3.68716363329110   -3.60595773018164   -3.27413734023415
C         2.43118106019103   -3.44772419285147   -2.42574424397699
C         2.71851026225836   -2.62014382497941   -1.16745360632965
H         3.76097599286440    3.38167238050107   -0.76144847438500
H         2.37577839483013    4.10529466473190   -1.60253802108899
H         4.80989711283272    2.79586000332546   -2.91028255778800
H         4.46205552654414    4.52745080566825   -2.86744335335872
H         3.80100023245100    3.53253507454116   -5.05295970321124
H         2.39410713635654    4.15886178718650   -4.18808778622419
H         3.30175965949852    1.24682215962702   -4.23820531723417
H         1.91972808120035    1.90527628219139   -5.12099445416739
H         0.82034801990009    2.52683827129877   -2.98358821805769
H         1.19852317125746    0.79613925114955   -3.00386977710299
H         5.34249968751733   -1.84934591781488   -1.89766740821465
H         4.83623902810627   -0.38140894826681   -2.74260699984629
H         5.11507061420297   -2.33942929861193   -4.29028616578137
H         3.45963910860070   -1.72870304079884   -4.29734709404503
H         4.45242635885101   -4.13536607031979   -2.70338340936188
H         3.46171787229391   -4.19809586642837   -4.16235168460523
H         2.05043131591734   -4.42346747647134   -2.12474292017856
H         1.65475466945964   -2.95318041185211   -3.01314510915084
H         1.80380203074800   -2.44895571982842   -0.59869076354162
H         3.41097449743740   -3.16557110775698   -0.52297736760531

