69
CSD_code = TOBMIH | q = 0 | S = 0 | Stoichiometry = C26H30I4N4NiO4 | MND = 4
Ni        9.85026646741821    8.26691937221211   10.70667021491387
I        16.38089565220134    5.85546492222371   13.63851805932932
I        13.58534255641998    6.17530431144857    8.24504963711314
I        16.14388896623493   10.62309250592797    7.26720028626575
I        13.77722958555983   10.33771384175114   12.86412502946837
O         6.96595793560682   11.71694595205671    9.92028680488653
O        11.36431751321418    6.87073607203488   10.14515138428801
O         7.04409109112242    4.81590927763335   11.71960905482124
O        11.40716521404158    9.66175260978214   11.14536956758618
N         8.52718464748911   10.07627869364710   11.71375674666824
N        10.06426054169424    7.76214805115546   12.47611039227346
N         8.45072647619011    6.45850855787016    9.80469166591768
N         9.92357382438061    8.77189279553218    8.92623286039875
C        12.32157853551275    6.83277113038713   12.32694765079927
C        12.35883255356561    6.69504476158733   10.90523719192049
C        13.61083728548106    6.32157019822771   10.34477472713707
C        14.73304544760252    6.09429776172071   11.08326050185243
H        15.66629629068841    5.83022928208262   10.60930207506135
C        14.65010607209399    6.21479467026218   12.47463524459888
C        13.47626666323235    6.56865210638525   13.08364808190181
H        13.43352006418398    6.68283100701488   14.15663277441919
C        11.15892942077945    7.31317193210346   12.99042206806677
H        11.24488860385687    7.32083831313366   14.08056435014916
C         9.09653951152956    8.34598746770933   13.37863868519331
H         8.11893684586698    7.87688561002588   13.23193268418387
H         9.39195581589682    8.20022826199669   14.42614191467892
C         9.01525981405235    9.84205194227141   13.07908980978980
H         8.37628247086817   10.34317359156369   13.82190541070726
H        10.02687324446837   10.24850622417817   13.15110071856300
C         8.94530964931107   11.42039133354105   11.28862989485674
H        10.03353401962942   11.45243209229007   11.24979003654370
H         8.58359553033302   12.16850845389368   12.01119049886479
C         8.37573007234103   11.75204776682707    9.91461766373763
H         8.65454214384829   12.76496896649571    9.62064354465260
H         8.76884432624117   11.03770611657151    9.17658494756838
C         6.51146712571316   10.45560638957081   10.33293081043042
H         6.80765571638835    9.69533279319589    9.59522974596174
H         5.42144907832990   10.51457963724413   10.36622951911045
C         7.06049762135786   10.06746649372156   11.70503969352700
H         6.68591454460765    9.07783663766902   11.97001230551573
H         6.68172123706718   10.79523235342877   12.44225761914899
C        12.19078538527415    9.68826941946471    8.89528382818674
C        13.28482225654813    9.94085390193090    8.04978352802876
H        13.15712081256622    9.82541385450146    6.98369563665814
C        14.50624203244367   10.28378330653828    8.56420508164540
C        14.69912669822227   10.40546697845081    9.94452828184697
H        15.66934740552673   10.66036017368039   10.34333373329554
C        13.63613624322887   10.19021472235534   10.76918900447248
C        12.34071983877834    9.82748712710017   10.30948933273816
C        10.97588754599571    9.21590789595671    8.32629417346349
H        10.97433766624557    9.20916290669807    7.23276244873421
C         8.88375681877658    8.19351811383509    8.10395793137835
H         9.09293838897966    8.34213835866012    7.03625926033312
H         7.92261385530506    8.66420978753748    8.33175610266920
C         8.82369569113039    6.69650954194461    8.40422998413979
H         8.12362301636536    6.19958665082495    7.71564433572459
H         9.82467395075406    6.28787091092027    8.24661107943559
C         6.99004143494379    6.46871040197580    9.93638189931033
H         6.54961543573924    5.74254653920172    9.23260228343585
H         6.59575517865412    7.45920802364724    9.70550371913032
C         6.55882573080080    6.07899022244155   11.34948714895969
H         6.91902722328845    6.83713563946937   12.06034771660712
H         5.46983207793466    6.02246311696834   11.40935754565530
C         8.90128682859631    5.11280938086882   10.18967422100793
H         9.98883411720773    5.07923915438861   10.13658720626975
H         8.47889758569160    4.36695663904444    9.49836450375172
C         8.44921620010623    4.77850163131825   11.60608599404967
H         8.75008647881745    3.76439631787879   11.87300976369877
H         8.90454392569392    5.49047902410639   12.30991238251174

