57
CSD_code = TOBMED | q = 0 | S = 0 | Stoichiometry = C20H16F12HfO8 | MND = 8
Hf        3.19683183208048    1.33176626185747   15.01058541662209
O         2.95732413776054   -0.37408956441802   16.30389388924013
O         2.08261028711625    2.05170482036494   16.69613222967366
C         1.81351378427823   -2.24192794575645   17.24625532642104
H         2.66216376743548   -2.79409359716173   16.85373282916964
H         0.91028654720663   -2.54676742260833   16.72007439281031
H         1.67794232459851   -2.45555269705985   18.30298017172771
C         2.01323895893337   -0.77175134391550   17.02125523414434
C         1.10232274254596    0.11976220568029   17.65259418022966
H         0.31492838412394   -0.26309918883763   18.27845088476805
C         1.22474992724582    1.46932130799278   17.42626761144042
C         0.23692525162654    2.41001391717479   18.14691043457744
F         0.04702466845942    3.54391522206396   17.46148969564897
F        -0.97078764433052    1.86172070564216   18.33225164736776
F         0.68479723910961    2.76058092380652   19.36189219175872
O         2.14045010876719    3.03716610913174   14.22570618469101
O         1.23426158548489    0.61143159433741   14.53952096330010
C         0.66130775097071    4.90526692796755   14.32157098784077
H         1.55058801501349    5.45827611082793   14.03429747759222
H         0.35293637662659    5.20965929453275   15.32044959881425
H        -0.15489340543253    5.11791045622446   13.63642309989277
C         0.96143124726628    3.43527066138880   14.35071448546205
C        -0.13412022628578    2.54427469220556   14.52000506394001
H        -1.13583825116368    2.92739170106211   14.61002593531452
C         0.11069738824217    1.19511829066785   14.60535062915527
C        -1.10419819787152    0.26115259892378   14.78365126720549
F        -0.75247688444477   -0.90808088329200   15.33041178939734
F        -2.05255795309459    0.78724994105993   15.57097978227428
F        -1.69571442534879   -0.01746604390054   13.61249647398368
O         3.43634053550264   -0.37407726882289   13.71728054645577
O         4.31106277773466    2.05171491464715   13.32503243334923
C         4.58014279414537   -2.24192150632246   12.77491944223710
H         3.73151974659445   -2.79408730029520   13.16750032608914
H         5.48340881586643   -2.54675722477800   13.30103526473813
H         4.71563834865963   -2.45554597266695   11.71818394628206
C         4.38043083445382   -0.77174459071740   12.99992859665616
C         5.29134663333182    0.11976341947365   12.36858423484409
H         6.07874042166979   -0.26310381660811   11.74273033153157
C         5.16892012192184    1.46932572596130   12.59489916203369
C         6.15674914900622    2.41000194673091   11.87424029025189
F         6.34665355911493    3.54392042993664   12.55962409691123
F         7.36445555121168    1.86169889156415   11.68890499952213
F         5.70886984154334    2.76053700991152   10.65924493951509
O         4.25321788817506    3.03714840183873   15.79546495580157
O         5.15940958554770    0.61141823696125   15.48164382133368
C         5.73235011894593    4.90525611021504   15.69956848415635
H         4.84304980323099    5.45826584264479   15.98677929031818
H         6.04079070911050    5.20963707125646   14.70070814250056
H         6.54850392013639    5.11790728904082   16.38477171317038
C         5.43223198292700    3.43525873913645   15.67042722223889
C         6.52778373297417    2.54426715370020   15.50112413223477
H         7.52949851670387    2.92738799236731   15.41108302924683
C         6.28297006035543    1.19510806614715   15.41579308641182
C         7.49787464365943    0.26115627306692   15.23747688479829
F         7.14615803425793   -0.90810590740123   14.69077735169058
F         8.44618814951843    0.78724550242046   14.45008607376414
F         8.08944838678974   -0.01740048536659   16.40861732745647

