63
CSD_code = TOBMEF | q = 0 | S = 0 | Stoichiometry = C28H28ClN3ORuS | MND = 9
Ru        0.25348381026267    0.26637133300117    5.33118019950716
Cl        1.46385402089823    2.21758120332905    5.84477412584181
S        -4.40301183892980    2.51599930127000    5.44540282701290
O        -2.46395011511716    2.76532135509661    3.01528585538505
N        -0.87455004730507    1.53775013851784    4.09555386118878
N        -0.08685215227345    2.21615554839153    1.95841998059059
H        -1.00245247924749    2.67221441435427    1.88322530190750
N         0.96188080185687    0.61763649620389    3.42321077985509
C         0.02833829606040    1.47727267859551    3.07857683920998
C        -2.00996980579980    2.27083149777965    4.04699918308124
C        -2.67965615095990    2.39772999324684    5.34710617386285
C        -2.09467838005773    2.50264087188617    6.57937206876693
H        -1.02610366192706    2.50504722852826    6.72362269827759
C        -3.03752076786176    2.66448039390266    7.61288922353064
H        -2.77544340569478    2.77063887081249    8.65050529870320
C        -4.31782284476953    2.67730641772059    7.15220907520996
H        -5.22442766134228    2.77684765388530    7.71587194166959
C         0.97115448324726    2.65604186560923    1.15156041415585
C         0.73671138866668    2.89010742431181   -0.19939528491150
H        -0.25495833336301    2.74009355698049   -0.59995900720715
C         1.77140625400572    3.30878533127348   -1.01436911983455
H         1.58702697113305    3.48562822619284   -2.06369744464563
C         3.04000235078909    3.49692329406743   -0.49097542538229
H         3.84758559827691    3.81572717325796   -1.13246712852946
C         3.26530279357966    3.29127769246702    0.85988404353393
H         4.24600372866811    3.45966578346345    1.27825023491148
C         2.23654775330244    2.88035850798058    1.68590542533808
H         2.40170232826965    2.75402464212892    2.74565255896802
C         2.01911675120118    0.13073383336141    2.67708533416822
C         1.88352798631198   -0.21204824906855    1.33002360352150
H         0.93216605376000   -0.08064500193608    0.83672064784495
C         2.96569434009236   -0.72129848333057    0.63940841012618
H         2.85630877770034   -0.97622744390003   -0.40442755592879
C         4.18248541923312   -0.90775877399499    1.27456429866764
H         5.02383796720660   -1.30315580022248    0.72567767714090
C         4.31437203488661   -0.58887126578249    2.61704979407526
H         5.26086388729320   -0.73448494040647    3.11682213464616
C         3.24132784690483   -0.07728600646675    3.31777431316853
H         3.32542882465072    0.19576059226644    4.36062889786319
C         1.16417416203948   -1.70929605889291    5.91697294758444
H         2.11003314197188   -2.17403906111994    5.66622388945498
C         1.03579258310301   -0.95800668921154    7.10048648347867
C        -0.25815458685574   -0.45734883504009    7.44706049689105
H        -0.39131438458704    0.05605180145647    8.39360829592090
C        -1.35934348606872   -0.68301629106792    6.61471695216218
H        -2.34358095380620   -0.34443138806959    6.91944054997138
C        -1.22629292838350   -1.41967320673032    5.40287114846273
C         0.04397101929780   -1.92809489463784    5.07023953519443
H         0.16051170643067   -2.54819604808854    4.18741705587459
C         2.18112894760813   -0.80847678080490    8.07639191325130
H         1.89712174053456   -0.05241863471925    8.81667538772741
C         3.46848372309724   -0.33654700929257    7.40153667055962
H         3.85178917826656   -1.08349366904383    6.71015880153939
H         4.22990822422242   -0.14707761700327    8.15403929108881
H         3.27831708512014    0.59043996725088    6.86338816016708
C         2.39086802216164   -2.14342363664806    8.80083087894020
H         1.47586305030895   -2.46115663574224    9.29720593417379
H         3.17198324304148   -2.03951833879635    9.54958682273879
H         2.68836442893109   -2.91852106542873    8.09768635112858
C        -2.43547633667286   -1.71273716673772    4.56578440419902
H        -3.05994595335059   -0.82583597314383    4.46687158753885
H        -3.03364466508419   -2.49430985294835    5.03770413548967
H        -2.14928978494737   -2.05025027031431    3.57188005115558

