53
CSD_code = TOBPUV | q = 0 | S = 0 | Stoichiometry = C20H24N6NiS2 | MND = 6
Ni        4.97462915524387    1.76131951756300    3.15195337601037
S         2.89203376182186   -2.10551611878473    2.70007695938658
S         8.71882982442784    3.88929645147045    4.53887208568147
N         3.68007245685443    0.53827194353346    2.67465145557050
N         6.23188707696513    3.09669616748814    3.63399321423125
N         6.36666134969918    0.51401315530355    2.58243248664005
N         5.32247169875377    2.68829082822046    1.05111930028948
N         3.52874758883357    2.97074334609111    3.68017588437202
N         5.05755074469593    1.24341961444945    5.39577046331969
C         3.38475195576536   -0.60384516229706    2.71682112766841
C         7.30141249889541    3.40490620803854    4.02193872732690
C         7.13241281382177    1.09409746725025    1.47462214444528
C         6.16614683499891    1.68443497657803    0.42438086649026
C         4.04930248745157    3.03062322023185    0.56567701641591
C         3.61292626367241    2.63070443876880   -0.69519356701040
C         2.34512428456357    2.94422503418997   -1.14789571882328
C         1.48774966852043    3.67888799944340   -0.35120131044610
C         1.90696562272496    4.07494148561408    0.90686334499828
C         3.16964712364559    3.76532985199815    1.38994019267259
C         3.50666581639807    4.16331531011751    2.81228673859237
C         3.62923665932428    3.21833972707516    5.12057047192590
C         3.84046535403349    1.88519942154227    5.87126075203863
C         5.23690493236237   -0.15644129412422    5.44990191853722
C         4.40482009634160   -0.97354104992740    6.20942909893594
C         4.55375478915846   -2.34791556688082    6.20620701514444
C         5.55276142987152   -2.93327412913385    5.45302275275756
C         6.38722458442691   -2.13087920345647    4.69567058577614
C         6.25288561308708   -0.75042009295794    4.67333437788424
C         7.14834824474572    0.03824127355519    3.74032393473343
H         5.87566214748161   -0.30466640723133    2.21305999251560
H         5.85877474917264    3.50176675481937    1.34203844176497
H         2.65860268666777    2.46063041975787    3.50799107714419
H         5.88703680936726    1.74400053928826    5.70492293927611
H         7.76409271225354    0.33449894220017    0.99378194148564
H         7.77946019005194    1.88268530248989    1.86724425980753
H         5.52270721608788    0.88127099715644    0.05470240865694
H         6.75667718901117    2.08409964183816   -0.41248968978953
H         4.27429511855254    2.06976171369923   -1.33684744066613
H         2.03302483106122    2.61975149198805   -2.12912699982183
H         0.49861499491866    3.93402593098388   -0.69824424939453
H         1.22880038434495    4.63631271746332    1.53485200076656
H         4.48157222177651    4.65543039168182    2.87710617182245
H         2.74377207576055    4.86792776634923    3.17341111337323
H         4.48184647363110    3.87859226537499    5.30094605171186
H         2.72054112458155    3.70441812822261    5.50217832619978
H         2.99866443219060    1.22446619446095    5.64672888004055
H         3.85877240334615    2.08709624725466    6.95150713395349
H         3.62553462574322   -0.53304825417221    6.81186041662774
H         3.88649033221938   -2.95844216472987    6.79537171343792
H         5.67496554135424   -4.00493653675638    5.44094559354244
H         7.15877775366626   -2.59157040006688    4.09421776226672
H         7.60284220116217    0.89807540353013    4.24055314189287
H         7.96128105449464   -0.61501190656473    3.39228331781931

