95
CSD_code = TOBTIQ | q = 1 | S = 0 | Stoichiometry = C50H36MnN8(1+) | MND = 6
Mn        2.83729392855484    9.94442581144141    3.88768959765267
N         1.82519603118219   10.07247931069611    2.15464159283678
N         3.85677104977354    9.79855734493226    5.60896906092837
N         4.39367436022411   10.90016139424524    3.04615888796610
N         2.08149742218277   11.75418054023436    4.47938069090791
N         1.27080550378194    9.01282939355464    4.73344589278888
N         3.60944404591000    8.13781411243706    3.29776708483587
N         5.00210579609189    6.48882183317915    2.91802440050019
H         5.85596011806608    5.95366979404633    2.88436424000453
N         1.44448653089225   13.85097791297809    4.48225953489388
H         1.25873394124846   14.78884124848849    4.16220823476327
C         3.86355359028788   11.62277690754313   -0.61104571116818
C         2.31319369241626   10.50563730336767    0.95148333144464
C         3.47734934450851    9.11412907142665    6.73106274789469
C         0.55249496443216    9.63460686067682    1.91375319547006
C         2.23741477083935    8.50836046915983    6.94079648393611
C         1.20558465091187    8.50431244360050    6.00157344759569
C         0.04215651028267    8.79600244311596    4.17244172444818
C         3.54931600184318   11.11928242685290    0.74224075997821
C         4.48999175872552   11.33347130881324    1.75269178475805
C         5.08733451620138   10.32921943218183    5.88363723747169
C         0.24439094391512    9.76347330029296    0.51973082249146
H        -0.67857383796770    9.46543201495992    0.06360667423458
C        -0.31566519790977    9.07193445961254    2.85211281861079
C         1.33862194034015   10.29247010148498   -0.07792133315222
H         1.48364903719940   10.50800695348617   -1.11770196680190
C         1.96788820252816   12.85051060152577    3.75481989089913
H         2.25254406071593   12.94847359730436    2.72399682084211
C        -1.66829366531785    8.68866656040843    2.39476971964286
C         1.98720488955101    7.88522345737999    8.25960751916810
C         6.30931183341902   12.13618074014277    2.78424246645177
H         7.21896645619224   12.64024492894910    3.04339510101853
C         5.51231818859296   11.35932906360108    3.68683791171013
C        -0.09924373988627    7.96286461769813    6.24685714231515
H        -0.40965917688395    7.49473754121302    7.15957414141541
C         5.68116297058342   12.11231307063699    1.58408459973245
H         5.97907061521283   12.59232005554015    0.67318931517602
C         4.86024131510263    7.73273872758668    3.40458620242347
H         5.66688052289706    8.30496095650285    3.82319758451510
C         5.86699087725534   11.08992927826551    5.01014378641691
C         7.16303678180845   11.60074273199231    5.50454255787876
C         2.68978506263188    6.74703002966187    8.64225073403403
H         3.41200346318378    6.31697281937703    7.96304377917270
C         4.50285369136300    9.20084933278608    7.72871906877929
H         4.45357320431628    8.75457810481620    8.70189997805934
C         7.20591030983404   12.49736816844725    6.56840205303325
H         6.28138045347918   12.82666042530774    7.02060857698235
C         5.50042529354368    9.95135546422176    7.20344024812019
H         6.43299866085355   10.22110098598262    7.65759736843950
C         1.60970331600917   12.07013333767115    5.72339300408260
H         1.58749159102145   11.35315435689166    6.52103737217364
C         3.06722223319011   12.59509143319911   -1.20994753471142
H         2.21362664686565   12.98729574096012   -0.67510897071244
C         4.96970822227048   11.13597092456606   -1.30198698848603
H         5.58672515113560   10.37603900806756   -0.84442459536193
C         1.05404409594200    8.43243216521744    9.13476410368670
H         0.51296452906532    9.32291707046511    8.84750979152503
C        -2.55891729109136    9.65959946785738    1.94624368935047
H        -2.25715545863350   10.69722143994269    1.95021750669534
C         4.47044295845380   12.57536525331849   -3.15553220326196
H         4.70552201481316   12.94452281979661   -4.14185511110560
C         5.26679237252991   11.60634090788182   -2.56795372367826
H         6.12301937526052   11.21627843896320   -3.09730849334250
C         0.82880504744959    7.85085726891574   10.36933099021073
H         0.10596880449056    8.28635031461902   11.04266188633586
C         9.60167751152242   12.55586998666715    6.44687016369583
H        10.54715018804777   12.92540145086102    6.81282211102429
C         8.35675722607631   11.18806839070049    4.91932237445944
H         8.33163444704581   10.48456305842477    4.09898321331322
C        -0.82609032562540    8.16333158466770    5.12230179025747
H        -1.85193495657749    7.90903035221111    4.94479966520752
C         2.92426599686788    7.10663730219172    2.71722575631975
H         1.87376820892739    7.16818440126725    2.50910563280676
C         1.52719187804857    6.71420181843535   10.74083803746282
H         1.34862582700718    6.25984569063705   11.70318765339252
C         8.41821412459218   12.97458345965260    7.03215098390627
H         8.43939978363060   13.67422942828491    7.85405354334795
C         3.37181688458642   13.06986555943397   -2.47258813796967
H         2.74999458331242   13.82798563226411   -2.92446190183737
C        -2.06434009782950    7.35419374003702    2.39379002795252
H        -1.37255080116022    6.59364686643523    2.72722897104240
C         2.45638260571434    6.16319140495386    9.87421048317314
H         3.00250703524211    5.27653855297220   10.15911820028059
C         3.78182557814690    6.07542904184094    2.47676779430287
H         3.61976676863898    5.11248563655439    2.03965325204190
C         9.56794583815284   11.66057540820924    5.39085135782012
H        10.48762906792835   11.32875443851870    4.93293440084207
C        -3.82337347761723    9.30266742415788    1.51463642988459
H        -4.50889672778897   10.06463003872325    1.17548192219756
C         1.21089726830094   13.37294971105811    5.73586091655151
H         0.79265935124936   13.97372652663468    6.51610141967661
C        -4.20945046862935    7.97253237036804    1.51508715616407
H        -5.19473205271039    7.69476761762717    1.17375374827222
C        -3.32639333082179    6.99971165056919    1.95308749823409
H        -3.62064322792955    5.96100605516199    1.95080701129141

