79
CSD_code = TOBTUB | q = 0 | S = 0 | Stoichiometry = C38H34N4NiO2 | MND = 4
Ni        5.55000028021025    0.00002981068601    8.99999422132705
N         5.31123709317023    0.78219594947264   10.72206077492135
O         6.59730483388586    1.46434309504070    8.53807644907245
C         7.37583640342251    2.02624723975932   10.72692162124050
C         8.40349821346855    2.66505605254831   11.49816967935006
C         9.39904661989009    3.42418789334176   10.83502486551427
C         6.23734438528878    1.45647453988273   11.33895962992929
H         6.05548047962626    1.67726237324670   12.38892272832662
N         4.33743512318556    0.01289736566516   12.67847389477417
C         3.29960084653452   -0.38209847037521   13.39871195444686
C         7.41803649804168    2.07223998098464    9.30248797257713
C         8.42481109831295    2.88463493011699    8.68478005174706
H         8.40744064725987    2.93804474011826    7.60628894336151
C         9.36222410229595    3.52796166987519    9.41833246075088
H        10.12100624470018    4.12443425824534    8.93045064387824
C         4.15637478395149    0.43497954072128   11.43394215969345
C         2.88662409549839    0.55576440661949   10.83605216219475
C        10.41126247391531    4.05310591655448   11.57716991346132
H        11.15679972651142    4.63130262031208   11.04950488687204
C         8.49631407767526    2.54493629195583   12.89611006507947
H         7.78224318811852    1.93873842871278   13.43162072270945
C         2.01022882720204   -0.36184999466231   12.88093759402198
H         1.17818192632163   -0.70986357726202   13.47410493386584
C         1.81137111181115    0.12580062023988   11.59962248053951
H         0.81000988289686    0.17172898099178   11.19993188003022
C        10.46102094316182    3.93420768937388   12.94174683920446
H        11.24183982696299    4.42013866897996   13.50759492055267
C         9.49711626841836    3.16732676890420   13.59964270867939
H         9.54548172082032    3.05854192249640   14.67351741291602
C         2.72071123211507    1.17423075728040    9.47282536001029
H         2.70360881436244    2.26372358554070    9.59174576101248
H         3.61162845417677    0.93991105278815    8.85027343741540
C         3.58333411094640   -0.84479387564320   14.79415051163190
H         4.65653808564949   -0.91189782172566   14.94466852872165
H         3.13066943684983   -1.81815002674250   14.97216917252768
H         3.16713009701294   -0.14129862316918   15.51443168086211
C         1.47186740870022    0.72865097166482    8.71918271185868
H         1.40907230010320   -0.35707454951727    8.68851386200837
H         1.51057289995824    1.09608440171126    7.69625248878165
H         0.56824640375565    1.12061514158538    9.18130077863029
N         5.78875513914352   -0.78214142971269    7.27792621496570
O         4.50269863430124   -1.46428395882966    9.46191752869764
C         3.72416141502200   -2.02620308535663    7.27307780119750
C         2.69650228256574   -2.66502393140590    6.50183668999579
C         1.70094031314673   -3.42412938438331    7.16499198079470
C         4.86265483974757   -1.45643665869493    6.66103569485887
H         5.04452730855124   -1.67724348092373    5.61107811325205
N         6.76257927386308   -0.01288965093397    5.32150384685031
C         7.80042219100930    0.38209307343108    4.60127097727342
C         3.68195803759005   -2.07217640650437    8.69751211058614
C         2.67516970243488   -2.88454576551426    9.31523110395873
H         2.69253624838598   -2.93793675507842   10.39372333881199
C         1.73775016782352   -3.52787193333750    8.58168674511889
H         0.97895674553077   -4.12432343840338    9.06957693654077
C         6.94362367856006   -0.43494551805416    6.56604598498047
C         8.21336840071664   -0.55571758406603    7.16395216936566
C         0.68872243910208   -4.05305370323676    6.42285487055640
H        -0.05683201538607   -4.63121799703950    6.95053099464277
C         2.60370319943188   -2.54494482764472    5.10389155595187
H         3.31779163968192   -1.93877855123011    4.56836872766821
C         9.08978345458503    0.36188796432933    5.11907316828537
H         9.92183784913129    0.70989235448229    4.52591122200081
C         9.28862658149467   -0.12573823127762    6.40039993806155
H        10.28997885507651   -0.17163293376722    6.80011599203928
C         0.63898122903043   -3.93419660653167    5.05827377776170
H        -0.14183676019871   -4.42013616250626    4.49243182234199
C         1.60290344720724   -3.16734727366477    4.40036628015495
H         1.55456101216663   -3.05860914249206    3.32648614736685
C         8.37926759161131   -1.17420340825720    8.52717227332493
H         8.39631771853653   -2.26369405152149    8.40822501278888
H         7.48836895233653   -0.93985939209133    9.14974004224510
C         7.51670391120616    0.84469187384161    3.20579574574746
H         6.44349683332125    0.91196242663289    3.05532407717483
H         7.96953956826014    1.81794991499621    3.02766085799635
H         7.93275586108014    0.14103868197177    2.48557365010497
C         9.62813564303659   -0.72871607986629    9.28082400166440
H         9.69098528996888    0.35700513084663    9.31152155056500
H         9.58942496374281   -1.09618054898359   10.30374417249036
H        10.53172739099139   -1.12071425553694    8.81867801732108

