78
CSD_code = TOBVAK | q = 0 | S = 0 | Stoichiometry = C44H28ClMnN4 | MND = 5
Mn        1.16853132869332    7.92315472938392   13.62530216210378
Cl        2.91091281006613    8.65224356981838   12.67588273569334
N         1.60234054276372    8.60883326419265   15.45798276659881
N         1.92597691665704    6.13752503063421   14.14258969314230
N         0.35118943583145    7.07597620563071   12.00674161701695
N         0.03903132932114    9.54919390161153   13.31330852489194
C         2.36644875217516    7.98952134541849   16.41219689485315
C         2.55903623409670    8.85208939884050   17.53984383089615
H         3.10175011299074    8.58992302263810   18.42657772824818
C         1.93229978325176   10.01588460835815   17.25265714988413
H         1.87390239847451   10.90401956357569   17.85020548310243
C         1.33931823833520    9.85770400417255   15.95791226244514
C         0.61976626309619   10.85866999609394   15.31382243364936
C         0.01642724561962   10.69079990805300   14.07146787079186
C        -0.76738621007516   11.70395438714007   13.43070901685129
H        -0.95082085316076   12.68170745835222   13.83064285261547
C        -1.21098830714873   11.17677342363663   12.26609442869025
H        -1.81659749905993   11.64207119848612   11.51366672882766
C        -0.70914756059225    9.83697644282014   12.20125911402174
C        -0.96089857606565    8.97038774769437   11.14272010490008
C        -0.47081225769754    7.66971201616607   11.08487783843864
C        -0.79427299095992    6.75076800250926   10.03433136635844
H        -1.44852884849987    6.96501104692730    9.21229426321058
C        -0.13767577621198    5.59978178664770   10.30678965234041
H        -0.14678202562043    4.68168597278170    9.75299994940847
C         0.58621058651249    5.81503830140460   11.52433578288245
C         1.38863824870322    4.84684234383804   12.11998794283056
C         2.01415041885135    5.02255815492339   13.35002810214839
C         2.85388199834612    4.03642803258253   13.96134809791504
H         3.09870629718762    3.08623755193114   13.52943324508595
C         3.26761899189682    4.55315457704146   15.14152589927059
H         3.91833266566707    4.11093799660074   15.86989104462997
C         2.68480147330296    5.85694627153160   15.24884539518014
C         2.89631664929169    6.70612012337477   16.33000748472202
C         0.48417040309567   12.17026669070090   15.98467837886912
C         1.10144100218507   13.29609713751460   15.44938531387571
H         1.68364434409695   13.19895389716768   14.54478321415626
C         0.98030061423754   14.52261642803215   16.07735114665879
H         1.46709330417945   15.39043439112879   15.65716006861208
C         0.23791586617779   14.63939372958829   17.24076115750007
H         0.14287667214023   15.59789120267457   17.72914292112581
C        -0.38278819848952   13.52323981703996   17.77614036388111
H        -0.96496750461138   13.60967311665581   18.68202975044810
C        -0.25918378164475   12.29401493868839   17.15380869160239
H        -0.74677362538348   11.42271126888799   17.56725468581183
C        -1.78797838161601    9.45187977656003   10.01524432398933
C        -1.22212798590736    9.60769704546818    8.75384531212303
H        -0.17453853827783    9.38445080254030    8.61468168163081
C        -1.99048296232207   10.05557170407845    7.69473057151363
H        -1.54094387449921   10.17836913971105    6.72034856911694
C        -3.33205956928972   10.34487178460609    7.88113143211516
H        -3.93196961682620   10.69110918190257    7.05260740104207
C        -3.90231319079528   10.18838722624670    9.13334324396805
H        -4.94900390594338   10.40994664815317    9.28267952819422
C        -3.13498121011846    9.74765205221386   10.19663491507881
H        -3.57981131094530    9.61931144868860   11.17304379782907
C         1.58177246588613    3.56756415545971   11.40475363662743
C         2.24665386633950    3.54564745399427   10.18269810623392
H         2.62776580450318    4.46961208770934    9.77327789363224
C         2.42881559434425    2.35192773896654    9.50858200867088
H         2.95090213499863    2.34435638683531    8.56311512104942
C         1.94303216306465    1.16963424776878   10.04201190940131
H         2.08263907330797    0.23859961286340    9.51300962100570
C         1.27728948419681    1.18484325436076   11.25623679445222
H         0.89457733770539    0.26550407753515   11.67488925739924
C         1.09994636990788    2.37593169502877   11.93683599682537
H         0.57530362041397    2.39045907164799   12.88140382688481
C         3.73730230108388    6.22431061403464   17.44733217515908
C         3.30446283777719    5.17938648148365   18.25701921801225
H         2.34418178369829    4.72243903029836   18.06517767995838
C         4.09017924069685    4.73714707578553   19.30610235087038
H         3.74268247287057    3.92918474900546   19.93332613147346
C         5.31844316040276    5.32755519160016   19.55209870164570
H         5.93183059762853    4.97990530634634   20.37010155070650
C         5.75763782092502    6.36472826409442   18.74602204224825
H         6.71647985349119    6.82571558487928   18.93236582492379
C         4.97104654509294    6.81476601563946   17.70111894238734
H         5.31085910618132    7.62031109160338   17.06685527764532

