49
CSD_code = TOBWEO | q = 0 | S = 0 | Stoichiometry = C20H24Cl2N2Ni | MND = 4
Ni        7.21322517494654    5.63791590604664    3.66598573640230
Cl        8.11541219338123    7.22466006004154    2.65711536054527
N         5.28231845128387    6.59685755291700    3.77198355220371
C         4.77123219063159    7.34461353959365    4.73211476015292
Cl        6.48705033706608    4.03540664103866    4.78593242651420
N         6.37407998608027    4.92455220537169    1.80845621244552
C         3.45338310781201    7.83082554813551    4.63126392519582
H         3.03631588609043    8.42838949499220    5.42346152655880
C         2.70128808688002    7.54428562759663    3.52663985591594
H         1.69168662129441    7.91721338379917    3.42866108737217
C         3.24179344420882    6.74607722776891    2.50611103274448
C         2.49709024540454    6.41869457190310    1.34137199318283
H         1.49315379642580    6.80672323012655    1.25178401409521
C         3.03939385185302    5.64496761061732    0.37403505528502
H         2.48657405664415    5.39483824414474   -0.51946046810437
C         4.35814068949387    5.13492886509101    0.51230340887192
C         4.94626133386021    4.33305739849752   -0.47862297831385
H         4.38566997717152    4.09962614418247   -1.37262089782518
C         6.21937044512522    3.86737632898873   -0.30446695963750
H         6.67982739490508    3.26661605265273   -1.06978178644224
C         6.92669780184776    4.17363527984365    0.87421171304802
C         5.13185004976351    5.42263550862742    1.65881218087880
C         4.56124866574506    6.27273527924120    2.68170454952328
C         5.56184538897737    7.61432374457896    6.00389789807794
C         5.25956510958498    9.01317867529926    6.56188992066873
H         5.34925820726441    9.76685047595469    5.78273409595863
H         5.97538409523917    9.24795337716022    7.34598884155930
H         4.26715016681641    9.07323710990858    7.00014138425187
C         5.11907077230675    6.54123575339078    7.01241504006431
H         4.04365309147633    6.57881000380234    7.17345571986017
H         5.61848604852358    6.70132237107736    7.96491403375349
H         5.37907802710193    5.55178562962530    6.64287918476278
C         7.07276810027034    7.52004597238246    5.79345886629009
H         7.36623350243280    6.53206615586975    5.37273904743514
H         7.58564423510569    7.61088930483861    6.74838154558227
H         7.41960538971160    8.31241307848897    5.13212373154850
C         8.36799845131755    3.70598945431272    1.01247150789760
C         8.82750981251462    3.62495266401967    2.46793031088262
H         9.89016427768808    3.39620118852060    2.50805743755682
H         8.28107951875634    2.84906196518526    3.00170673742034
H         8.69610161942021    4.59768943624656    2.99307893896246
C         8.56528812322422    2.31664250553576    0.38769126004629
H         8.53325760169466    2.34779927250920   -0.69787003400218
H         7.80808191031577    1.62232381350147    0.74491324212689
H         9.54130285844326    1.93138828896551    0.67278768520144
C         9.22243984027519    4.74276946751802    0.26433618223442
H         8.90785651217598    4.82999066653699   -0.77360005463939
H        10.26784229727232    4.44454932378793    0.28632850959155
H         9.12647125417502    5.71729859976586    0.73785366629671

