42
CSD_code = TOCFOI | q = 0 | S = 0 | Stoichiometry = C22H16AuCl2P | MND = 4
C        -0.35300628760737    8.30923303193273    9.13169553458211
C        -0.76070264906271    7.09649978833078    9.60634073171184
H        -1.38641182035669    7.04176748106743   10.48277949427800
C        -0.36999080790214    5.90910999975960    8.95976718056199
H        -0.70925510371822    4.96601844431450    9.36075903881152
C         0.42168397962004    5.94724499283248    7.84843222465705
H         0.72285983115625    5.03685663180792    7.35093350430184
C         0.86319478387382    7.18155912209656    7.32770203131740
C         1.68516932053063    7.27186887991815    6.18559469314972
H         1.98283903891641    6.35647098746597    5.69505661230170
C         2.10395025481176    8.48228834813403    5.70146869334385
H         2.73463446941156    8.53220453446529    4.82649540627994
C         1.71793858486024    9.66801251669246    6.33717406373800
H         2.05240170091506   10.62216759968620    5.95407380892376
C         0.91853236600373    9.61320839866621    7.45324615412024
C         0.46661099646192    8.38119902608580    7.98053477591245
C         1.80547431250957   12.00119025887428    8.77760742918693
C         1.78986640135288   13.39146190948611    8.86153636197880
H         0.88168499350832   13.93175653346954    8.63614868759640
C         2.93439175289623   14.05740917899877    9.25685399281113
H         2.93055416324244   15.13509786112103    9.32207334034901
C         4.07983424592898   13.34625134397465    9.58152769974844
H         4.96832094803266   13.87308437834671    9.89621022737320
C         4.08679922016574   11.96181492697070    9.51538126932822
H         4.97644493433872   11.41045394628961    9.78095923554176
C         2.95038334610484   11.28310729646443    9.11626342732271
H         2.94037899590117   10.20164133576458    9.06700124599455
C        -0.60409581711799   11.99337711027726    7.10625061318510
C         0.04396912797628   12.80295880280777    6.17771425857810
H         1.11538933868058   12.94098140846921    6.23011738207635
C        -0.69782037409876   13.44060297634122    5.20010496389730
H        -0.20205402004568   14.07712425417716    4.48207640543743
C        -2.07175907141115   13.26860965797527    5.14347334294061
H        -2.64526906670725   13.77467464454315    4.38146002020863
C        -2.71303876607826   12.45338232687573    6.06298752350974
H        -3.78361874379257   12.32229720338114    6.01811950542869
C        -1.98161750005460   11.81028697941685    7.04366060181432
H        -2.47006324472612   11.18055371014184    7.77677667701563
P         0.32399015058821   11.08328202985792    8.34961255323844
Cl       -0.96517010120771   12.45529950912894   10.22302195132746
Cl       -2.11270915813480    9.20987075459547   11.66206659819637
Au       -0.85251472576343   10.07611987899928    9.96304073792143

