85
CSD_code = TOCGEA | q = 0 | S = 0 | Stoichiometry = C34H45FeNP4 | MND = 6
Fe        2.62536685549238    0.54087954491771   14.23236208339019
P         3.93239999684842    1.88240120119239   15.36313865634774
P         1.08713079120135    0.35815535274925   15.76551098524435
P         3.60487676406458   -1.40020912035870   14.52835179622013
P         3.42812242281092    0.92149461226983   12.24107887856511
N         0.58260240545058    2.13660671106227   13.09012968147205
C         1.11735377254613   -0.17179984664704   13.17428085671391
C         0.24400438297655    0.84898170725111   12.73947600558934
C        -0.88971629133729    0.58747690678694   11.97737406386811
H        -1.52299185308213    1.40928228857926   11.67473865346280
C        -1.18091362075364   -0.71436815697329   11.62081849425537
H        -2.05647253136061   -0.93453019723114   11.02583859934558
C        -0.34208354201130   -1.73782410931389   12.03231347217130
H        -0.56515285518258   -2.76037012685756   11.75544199734825
C         0.78028332390287   -1.46338558479905   12.79886756906495
H         1.39985056728732   -2.29375620311349   13.10889829446468
C         1.65552694891535    2.19809159828336   13.78565849250370
C         2.16284059851073    3.50924231625736   14.15793508117604
C         3.35207580474300    3.53771088171710   14.88514796472501
C         3.95759152482569    4.74808059763441   15.20385436906974
H         4.88592678847407    4.76151063547595   15.75990015922357
C         3.36016306105592    5.93008740297538   14.80723471123479
H         3.82582450538276    6.87493673485612   15.04932828056348
C         2.15974776853186    5.90891211998354   14.10473046606488
H         1.69912797563363    6.84096497475728   13.80881218130712
C         1.56179025423604    4.70960447145570   13.77708311513021
H         0.63816315567748    4.67140292035796   13.21977087899256
C         5.73992059848722    2.20674599066367   15.14722087883171
C         6.74879188680591    1.89774494951345   16.05272782520788
H         6.51787643793860    1.45081793556385   17.00641785468402
C         8.07142166495758    2.18568118975658   15.75899940026653
H         8.83981924277461    1.94067244264174   16.47865158175395
C         8.41287749213286    2.78760491991720   14.56129015816482
H         9.44583669086630    3.01206646900710   14.33920432697775
C         7.41634058999670    3.10769099219045   13.65394741175322
H         7.66737851188700    3.58851402986900   12.71896408494442
C         6.09909035975295    2.81664966045886   13.94695448716299
H         5.32074164292769    3.07139143634808   13.24268198266480
C         3.85292914452748    2.07973264722013   17.19469785931799
C         4.42531857342944    1.11781770425552   18.02510042080703
H         4.89303814388962    0.24963048578380   17.58724530065336
C         4.38206686232351    1.23914479509303   19.40125486546357
H         4.84451755863552    0.48498296423432   20.02286130266561
C         3.74006107091856    2.31936284469163   19.98235509511051
H         3.70317629316288    2.41765976673661   21.05735291457272
C         3.13470634100717    3.26408812436118   19.17247167859697
H         2.61486033631067    4.10214446740990   19.61488918549989
C         3.18958194220779    3.14689817115804   17.79445184125660
H         2.70630681005733    3.89837677681408   17.18764382930842
C        -0.29753827089616   -0.84219417586758   15.59896278241112
H        -0.91888167074392   -0.56129403932321   14.75141415461283
H        -0.89699921177890   -0.82139060934339   16.51039579342097
H         0.08543302808844   -1.84593236763061   15.43165364980379
C         1.56175549690857   -0.04331484199058   17.51561829759923
H         2.52309429519238   -0.54961855007862   17.54400245072388
H         0.80625024625211   -0.67719863094103   17.97838183040090
H         1.64845699963938    0.87873672845195   18.08621690462279
C         0.04928411909633    1.82193494350922   16.15201641792908
H         0.69188304728395    2.67162073959431   16.38051902484463
H        -0.58423407197219    1.59590108346139   17.01135038855560
H        -0.56835742002854    2.07061569567690   15.29105860766395
C         4.17010788694980   -2.44917524506325   13.11979551481478
H         3.37775783883145   -2.58898588876230   12.39053588846206
H         4.47927056331509   -3.42355598752575   13.50096205897659
H         5.01633540426612   -1.97054474677410   12.63463353297042
C         2.81462206336752   -2.75299561920133   15.50331176211128
H         2.39590989516480   -2.35700511821450   16.42470649613976
H         3.55887623811241   -3.51528703172954   15.73874452514884
H         2.01171991938173   -3.20710632359525   14.92676478123010
C         5.21860208923365   -1.39681107733607   15.42033299488224
H         5.80174738175236   -0.52355484215401   15.13113391549046
H         5.78367460735326   -2.30353728960341   15.20331617683416
H         5.02437594723352   -1.35365050826167   16.48992546187491
C         2.77168170654628   -0.01306990421479   10.79816914248488
H         1.74078860601870    0.28370173812044   10.61585012639067
H         2.79281412627883   -1.08225229277166   10.98940527338467
H         3.38085365406123    0.21821489177205    9.92261219588138
C         5.23451347417569    0.60217272005998   11.93312903416866
H         5.34576122599417   -0.28132122092274   11.30703639307415
H         5.74900841820213    0.43682601837246   12.87766517434113
H         5.69576473628905    1.44786010858361   11.42670936307038
C         3.26948159568735    2.56479714069382   11.41968467201171
H         3.80898541442388    2.53962123642555   10.47148754824442
H         3.65058895231647    3.37430448039088   12.03823359109327
H         2.21271449745586    2.75139038936557   11.23290400105169

