135
CSD_code = TOCGOJ | q = 0 | S = 0 | Stoichiometry = C60H64Cl2CrN4P4 | MND = 6
Cr       12.69567617463630    8.75406711983761    6.62103811544628
Cl       10.96317536678721    7.99498533161413    7.94601263886225
N        11.57188819330059   12.50064993608082    7.04933393158131
N        15.50605579195335    9.28818780997167    8.94723228139931
P        13.26618481815826   10.45761295248062    8.08308301355992
P        11.23100226229398   10.15928538580482    5.61889379013096
C        11.72943009598214   10.23263210649657   10.40124084085307
H        11.21640916625923    9.44605614259212    9.86572617321089
C        11.33428952975392   10.55955164250999   11.68662457187309
H        10.51815823286972   10.02238536721108   12.14753411676504
C        11.98131420211757   11.56954890470859   12.37751129782417
H        11.67828961355835   11.82304949055465   13.38309803614128
C        13.01497302961533   12.26391295664436   11.76879066052591
H        13.51478684646259   13.06389257285491   12.29717972314039
C        13.40972246512480   11.94332309524644   10.48352240786727
H        14.19651040017007   12.52178707602043   10.01913636757235
C        12.78057377817030   10.91128632524295    9.79031349322060
C        12.94487882919785   12.06701642691471    7.17756492156590
H        13.53219002183309   12.87725438726639    7.62468694319661
H        13.33571535484150   11.87301258404108    6.16390952359367
C        11.10747469029248   13.35679061753440    8.12938331025274
H        11.06208074285029   12.81826926086256    9.09064403284200
H        10.08272848271218   13.65863604231952    7.87634914209974
C        12.39337666655704   15.27890364005989    7.14847329770485
H        12.15368758520634   14.89144117379271    6.16982737003863
C        13.14952219740202   16.42889021780360    7.28057190058704
H        13.49532619311872   16.94862760469762    6.39900690713798
C        13.46161905082738   16.91566465461461    8.53934988520981
H        14.05095200367200   17.81484047258120    8.64260790662956
C        13.01512414390858   16.24471120215699    9.66451944350131
H        13.25510134383522   16.61962932768309   10.64895041371198
C        12.26253642398932   15.09042208428004    9.53225906488875
H        11.91685008126252   14.56586771865773   10.41199803712806
C        11.94548261675577   14.59722680796660    8.27419532323489
C        10.61951740046851   11.43861174936909    6.79689479724878
H         9.68136592405286   11.88132169146558    6.42973726330587
H        10.39215576799606   10.86067081386593    7.71880206915540
C        12.02587315972798   10.30515367267377    3.02434819511945
H        12.15064887613134    9.24033904308922    3.16855291305997
C        12.34646665886852   10.90450569429196    1.82290390969684
H        12.74333409223446   10.30999968162855    1.01271163266598
C        12.16674322142113   12.26870822691505    1.66579757058680
H        12.41875166405064   12.74421151224817    0.72877074431242
C        11.67146713898569   13.02761743612671    2.71339139789818
H        11.53364701147361   14.09254855190238    2.58817646333500
C        11.36368090161279   12.43502759439891    3.92495512232335
H        11.00535998219861   13.03445670786635    4.74799464437554
C        11.53623234547714   11.06435777860654    4.08102150382487
C         9.62611004042997    9.33868622940417    5.18651730518513
H         9.12154929289523    9.03141086112917    6.11944379286232
H         9.01171837432946   10.08253489950341    4.66733481116631
C        16.60297279514501    9.50126840870317    9.89144498933191
H        16.39323361316227   10.42338274752861   10.44025251342379
H        17.56544886030787    9.62060690391431    9.36523510815696
C        17.63315809190505    7.36144896748568   10.74369472499891
H        18.35926807826913    7.40991735831071    9.94274325918908
C        17.66728669624296    6.30310032634733   11.63487590259971
H        18.40641072015677    5.52409994824091   11.51573545102923
C        16.75965117746426    6.24623162752971   12.67749583652775
H        16.78637034659510    5.42105960244689   13.37372935116794
C        15.82342367832651    7.25452921136796   12.82890693681005
H        15.12219403755251    7.21996887488023   13.64937054281380
C        15.78296602036963    8.30531934333807   11.93116892174356
H        15.04730664245690    9.08848114779742   12.04350312397596
C        16.68494582912195    8.36742498774245   10.87724687798092
C        15.11523138059234   10.50261976434015    8.24558199407091
H        15.56424119920406   10.57946971120015    7.24406121184413
H        15.41534693172264   11.38174103019099    8.82188121237736
N        13.82016197017164    5.00826830653513    6.19464880581178
N         9.88602929999364    8.22070782122389    4.29660725097277
P        12.12566869712314    7.05059634016366    5.16057559794214
P        14.16082080390952    7.35000235501462    7.62509390190314
C        13.66257275669936    7.27620865525478    2.84255909498372
H        14.17553327304322    8.06277394097438    3.37812070700317
C        14.05777439172327    6.94932675826390    1.55718374570730
H        14.87389732477314    7.48653912615111    1.09631945467873
C        13.41074257649757    5.93936069465385    0.86625563065854
H        13.71375485697491    5.68593221224156   -0.13934639944679
C        12.37706104641504    5.24497208650759    1.47488344102905
H        11.87723487707929    4.44502398425570    0.94649282996009
C        11.98224858965250    5.56549842933041    2.76012772813399
H        11.19552629137820    4.98698147766247    3.22453511557859
C        12.61139489490965    6.59747792936610    3.45337356717300
C        12.44706769579800    5.44150104952388    6.06649218214196
H        11.85991102105232    4.63128007378453    5.61921906491698
H        12.05619945321203    5.63552032848438    7.08016844347511
C        14.28462059834432    4.15214516423178    5.11454957963349
H        14.33000402475020    4.69060409256032    4.15325020680737
H        15.30936839883324    3.85030053504628    5.36755814493057
C        12.99869430774193    2.22999211302863    6.09537059973945
H        13.23835961111451    2.61747018976434    7.07401709593359
C        12.24250765380336    1.08003595198993    5.96327031512622
H        11.89664887556122    0.56033290080552    6.84483462343917
C        11.93042295002751    0.59324612327431    4.70449528752583
H        11.34104149947088   -0.30589930365786    4.60124265297293
C        12.37698740352513    1.26415730144514    3.57932640260763
H        12.13702575964578    0.88921622867010    2.59489596384666
C        13.12961135632871    2.41842924624596    3.71159298466513
H        13.47534966692531    2.94293729027220    2.83184440088061
C        13.44663992466077    2.91165861731377    4.96966351704939
C        14.77224082521290    6.07061739251144    6.44714409367313
H        15.71046466041468    5.62797859764714    6.81412871015696
H        14.99957828360588    6.64842640527165    5.52516686303453
C        13.36614023255610    7.20372858608235   10.21952683898555
H        13.24126903973547    8.26851649842810   10.07525124726995
C        13.04553203448034    6.60433395384886   11.42093061307703
H        12.64866571578519    7.19884354342571   12.23109872581805
C        13.22535702891726    5.24015364414727   11.57802968101514
H        12.97345521627220    4.76465524125190   12.51508482562201
C        13.72066418598142    4.48125966230484   10.53042721099545
H        13.85854602296509    3.41633353848111   10.65566527776049
C        14.02846047020689    5.07389595309265    9.31887645971813
H        14.38676086028050    4.47448376440272    8.49581871027439
C        13.85590597438131    6.44458855986300    9.16289245571460
C        15.76602105737797    8.17021878381874    8.05733876646033
H        16.27047920900044    8.47745838696455    7.12436231800998
H        16.38048421785051    7.42633704613965    8.57651114260907
C         8.78904992018234    8.00764759444777    3.35235990226816
H         8.99873819447399    7.08552743383249    2.80352705319088
H         7.82656976034016    7.88832066322990    3.87856732107756
C         7.75888368567334   10.14746870339746    2.50011249148937
H         7.03277858013471   10.09900680920848    3.30107110589934
C         7.72475671571091   11.20581113775530    1.60892516457877
H         6.98562576896879   11.98480923547848    1.72805503353229
C         8.63237736781749   11.26265596527839    0.56629170708341
H         8.60564841606405   12.08781207460185   -0.12996288193219
C         9.56859340700086   10.25434906104486    0.41487527871998
H        10.26982336803750   10.28889846847515   -0.40559119294257
C         9.60904162348129    9.20355673848125    1.31261210838023
H        10.34468922386507    8.42038261731022    1.20027525516751
C         8.70707252421437    9.14147566331279    2.36654489512906
C        10.27665665055228    7.00622150675975    4.99826658465079
H         9.82754896632678    6.92940127092101    5.99977637940541
H         9.97657565275013    6.12718943908038    4.42193501236247
Cl       14.42929894182380    9.51408749436435    5.29773192650187

