51
CSD_code = TOCHEY | q = 0 | S = 0 | Stoichiometry = C20H25Cl2N2PPd | MND = 4
Pd        4.09945564103101    2.68600925861695    3.60498614746684
Cl        2.44330031071856    1.74499192762400    2.33329528818149
Cl        5.77186931737870    3.70331731534003    4.79398182913505
P         5.59622269628897    1.14483822347436    2.98718075190540
N         2.86149992867997    4.25914515193132    3.98044116338518
C         2.57370525924849    5.09268173950762    2.98687064622030
C         1.83058548840603    6.24286872590407    3.18162779929929
C         1.37192804592363    6.52939687653868    4.45978914176259
C         1.66774202857374    5.65598653666670    5.48984627014155
C         2.42247120379473    4.51855376612507    5.21645922298569
C         2.81038345255534    3.55114771393058    6.25714546481359
C         2.67173726601151    2.19122863393658    6.03836907155058
C         3.11173562976953    1.26537515497534    6.99983468584197
C         3.72869458691605    1.68988254928746    8.14516781918590
C         3.89541492535677    3.06521914320439    8.39746766267602
C         4.53446110632714    3.56234392531645    9.55285028989175
C         4.65319443229929    4.91355701754494    9.72594335977347
C         4.11457301731485    5.76324898025565    8.74302682238847
N         3.51885180183770    5.34307947993010    7.66419999103358
C         3.40815724009199    4.01639411903106    7.45913932453529
C         4.96042815844034   -0.35390639676547    2.12102604508585
C         5.99260582813301   -1.42495660545919    1.79684715170297
C         6.65905165770939    1.98008477089423    1.72981554117944
C         5.81517676031649    3.00908908963032    0.97544813949877
C         6.79027661336433    0.52338253418211    4.23561876534110
C         6.02464864385887   -0.11562133153124    5.38721886907522
H         2.94571598012666    4.81988889233124    2.00102469487939
H         1.62101795242735    6.89853417430435    2.35156406049422
H         0.79158032820117    7.42018605807332    4.64746508205378
H         1.33326828182661    5.83832479222589    6.49709218314827
H         2.13169282130771    1.82509459214233    5.16231446515270
H         2.96108897189843    0.21073154747917    6.81903947861652
H         4.09609326227098    0.97952291719572    8.87231010815186
H         4.92471372834497    2.86449184722220   10.28108596861703
H         5.14413220679689    5.33158138254553   10.59113365791681
H         4.17809875617999    6.83853891601958    8.85522948166829
H         4.15920395044816   -0.76538001400010    2.74123056883730
H         4.48436516383372    0.01472610199271    1.20789523791186
H         6.84668740798691   -1.00775226328068    1.26706652514375
H         6.35182186248947   -1.91284585261643    2.69965932562071
H         5.54204724923428   -2.18543850066672    1.16191596608537
H         7.47150331985777    2.48194745246013    2.26216608905447
H         7.08569862335981    1.24425998087367    1.04246232844885
H         4.93345453101065    2.53490529593698    0.53637976024951
H         5.48764536482458    3.79492253431118    1.67602435470627
H         6.39146122443537    3.47810616704333    0.17931871961009
H         7.49478676489574   -0.17104080924513    3.77190484642980
H         7.33777794252936    1.39615991888724    4.59842968285311
H         5.31734966048104    0.61578756278726    5.78534284609473
H         5.46893239846910   -0.99070468376625    5.05289968457856
H         6.69969120641146   -0.41668631034840    6.18584761961214

