92
CSD_code = TOCNUW | q = 0 | S = 0 | Stoichiometry = C46H41CuP2S2 | MND = 4
Cu       12.74006720494660    5.59840893283313   11.67109851340711
S        12.25967268324827    4.95639735280502   13.86049903638778
S        10.38414835209083    6.06105924487943   11.89720499170618
P        13.89685046451255    7.49459670845723   11.50096039832501
P        12.84741868421480    3.87311710304717   10.26171950727081
C        10.73279822301049    5.50637188115582   13.43737931537633
C         9.67152701903635    5.51475499792460   14.45354514701681
C         8.81099926013755    4.42273950810652   14.56933983725908
C         7.81501844656643    4.45515905819175   15.53225066121349
H         7.14665174141161    3.61000325270757   15.62483357922211
C         7.65858896273515    5.54544324291759   16.37505296334244
C         8.52585673339760    6.62038418678075   16.24142972732858
H         8.41459358779610    7.47698801425734   16.89218680804739
C         9.53389132852511    6.62320810726103   15.29139283848422
C         8.97943277493568    3.24055713059644   13.66430624037434
H         8.88442540977488    3.54186274184161   12.62041546567472
H         8.23583633016186    2.47611230835414   13.87595354330244
H         9.97288720617415    2.80918903701749   13.79002834173881
C         6.59058968413400    5.55506782642680   17.42781897953798
H         5.76668278764258    4.90113397014114   17.15136304232239
H         6.20695579084949    6.56159858840388   17.58089567489671
H         6.99900192902787    5.20318525651024   18.37614187731263
C        10.46420373773632    7.78975263567163   15.15044964577475
H        10.22753821935383    8.56792469825926   15.87204454067559
H        10.39706142540735    8.21030895560005   14.14650357046457
H        11.49639065459791    7.47259792845308   15.30286526587408
C        15.58587235376562    7.38956341899673   12.16426169279848
C        15.78074738306329    6.55295011539214   13.25997792153372
H        14.93622352987664    6.01036496164908   13.66758003885810
C        17.04135890670434    6.41684933279357   13.81231705802098
H        17.19008324556229    5.76687377366514   14.66186162717188
C        18.11071231506414    7.11115605273277   13.27002074432608
H        19.09677557927447    7.00390432743680   13.69777824308106
C        17.91942189959146    7.94330034919600   12.17756580095935
H        18.75537016619143    8.48424089168844   11.75815462698207
C        16.66143689167705    8.08572167373094   11.62148886550838
H        16.50877296967916    8.73298528340775   10.76887411467196
C        13.23740406534405    9.02768220414384   12.21813701754207
C        13.95644523496891    9.84506784268481   13.08247128184367
H        14.98492326039421    9.61165075857016   13.31998406021752
C        13.34693871372472   10.95535542762391   13.63998916540109
H        13.90562879673460   11.59072930869176   14.31186903450113
C        12.02599429530405   11.25081404466824   13.34615455103351
H        11.55561203087087   12.11652150610752   13.78863173203829
C        11.30246731992895   10.42963289319540   12.49512260476381
H        10.26780727681022   10.65065805116752   12.27670432551029
C        11.90175687062930    9.31617541240425   11.93863141128870
H        11.33797768911374    8.64860989143061   11.29869306629763
C        14.19208822392635    7.89550627082395    9.75365200770995
C        13.67931378741672    9.01590354390036    9.11226396731990
H        13.11901332906843    9.75130345424167    9.67205293399980
C        13.89461209610229    9.19067585284396    7.75607526128014
H        13.49681625415741   10.06444526623548    7.26049642600133
C        14.61805222977533    8.25614463234797    7.03537475429479
H        14.78529434622960    8.39976006448965    5.97829927030390
C        15.12532801917356    7.13280535522312    7.67035879132144
H        15.68603252484614    6.39925456627839    7.11022577202300
C        14.90310152956087    6.94700803940637    9.01924020086783
H        15.28065967658281    6.06419166035873    9.52081121843578
C        11.54478751170115    2.61296790448293   10.35038050418498
C        11.58460866994977    1.74719203788664   11.44283620600456
H        12.41578506417958    1.80592774584565   12.13487336762148
C        10.56751263508767    0.83387730346044   11.63716956783886
H        10.60087680898907    0.16008447027782   12.48084279121854
C         9.49635844007799    0.79337554956632   10.75755008711567
H         8.69658582417067    0.08471338368889   10.91467285201155
C         9.44379037853814    1.66883560205671    9.68558181802414
H         8.60198991512304    1.64398781556301    9.00857166836529
C        10.46168573646592    2.58326292136685    9.47963518034109
H        10.41705342683006    3.27393441062818    8.64884300263282
C        14.37394992795935    2.88676800573526   10.30544095448491
C        15.47825945939116    3.47235443209616   10.91620822816012
H        15.37407604262410    4.45896101024225   11.35447079159073
C        16.68134829077876    2.79424684083678   10.97951719616312
H        17.53546685045013    3.25414757292792   11.45485424110370
C        16.78231822685225    1.52187770318209   10.44046364823199
H        17.71912696954069    0.98684821719195   10.49144915432700
C        15.67994766783656    0.92767341516509    9.84541350469056
H        15.76050033408910   -0.06860591999823    9.43511333214829
C        14.47547668013099    1.60363501408658    9.77641883498021
H        13.61083172014244    1.13864857407233    9.32217385886217
C        12.75968601087200    4.47524413285903    8.54842984786249
C        13.49383380276841    3.94804936546385    7.49363892272518
H        14.15633237511961    3.11007094531195    7.65823827380631
C        13.37755000604584    4.50576649144462    6.23263117126330
H        13.94640065358214    4.09424240112917    5.41110335448276
C        12.53859071220912    5.58703734755214    6.01948920138435
H        12.45462719722967    6.01751389041066    5.03249586305073
C        11.81162310799114    6.12069026593573    7.07172557905826
H        11.16313223706283    6.96862479617781    6.90853909929051
C        11.92599497662909    5.57104813934632    8.33345356620123
H        11.37416088675309    5.98376931749355    9.16957522984059

