65
CSD_code = TOCREK | q = 0 | S = 0 | Stoichiometry = C28H20N6O6PdS4 | MND = 4
C        -5.07750779898784   -1.42811767166300    4.64215823209363
C        -6.02622972881094   -0.91379164156268    3.77237543698898
C        -6.76570615111710   -1.75941460590329    2.96131396753101
H        -7.50052015513460   -1.34903558314218    2.28624401023244
C        -6.53318867688530   -3.12414885315937    3.04898680145245
H        -7.09755034983212   -3.80306739334676    2.42726613325148
C        -5.58392041073138   -3.62955131289507    3.92554839285116
H        -5.41679613682755   -4.69468561086340    3.97712011535265
C        -4.84574188642999   -2.77996279285644    4.74316664974013
H        -4.11004125146523   -3.16074748935587    5.43340722830809
C        -6.08789562175522    0.57843885967478    3.79048145894105
C        -6.06222235079290    2.77446024024259    7.10928135737984
C        -6.43628947216670    2.26862866113099    8.36322520948424
C        -7.76583348423214    2.18817811256495    8.73534761185125
H        -8.04322885391005    1.79220389581153    9.69918283976150
C        -8.72036708854743    2.62182438711102    7.83244554931169
H        -9.76457720522808    2.56183825431832    8.09947102777491
C        -8.35652380859306    3.13042194250048    6.58787815261065
H        -9.12557831032234    3.46044020274396    5.90642482106309
C        -7.03052544385423    3.21622398460593    6.20981015009232
H        -6.72239462028008    3.62688698335600    5.24692292058471
C        -4.02445456250550    2.24777172704293    7.86446704017051
N        -5.25894809707848    1.09663160125173    4.69261621384875
N        -4.70722108720488    2.76640183849538    6.87477842443908
N        -2.70533236536575    2.09351313304434    7.86019275530960
H        -2.25582275652973    1.71853661324875    8.67730863934603
H        -2.14139240804401    2.67577861646674    7.21820220141696
O        -4.92789740481768   -0.10205990796831    6.90338573029183
O        -3.03428363789652    0.20836795582303    5.40150823068598
O        -6.80656813236418    1.23383491435472    3.03770574266632
S        -4.44770544228287   -0.02078656466349    5.55057865997699
S        -5.00542077657675    1.78900963148874    9.24353114040698
Pd       -4.14367997443136    2.74770186879128    4.91859312208630
C        -3.21168375584885    6.92514359445352    5.19459871001936
C        -2.26294420788998    6.41087261860868    6.06438302798657
C        -1.52340153953751    7.25652235274367    6.87535731276879
H        -0.78862711052048    6.84615366376181    7.55047872842468
C        -1.75596228606565    8.62124401406278    6.78770382790220
H        -1.19161779802935    9.30017145330351    7.40943129816653
C        -2.70525240448274    9.12661296914049    5.91115027820938
H        -2.87235547729501   10.19174993984680    5.85953909738174
C        -3.44342368572496    8.27699780154847    5.09354126567841
H        -4.17910431166212    8.65777460291563    4.40327600120494
C        -2.20135062296654    4.91864728975971    6.04643498117649
C        -2.22673011379327    2.72260159913883    2.72749615330634
C        -1.85265092302621    3.22845125181115    1.47358132413511
C        -0.52309112600719    3.30883995374913    1.10149830641051
H        -0.24565782960461    3.70477311743885    0.13765880779806
C         0.43140623599384    2.87517412960287    2.00444036081801
H         1.47562808521167    2.93512123884197    1.73744705139469
C         0.06751688104840    2.36658278425862    3.24899849282368
H         0.83653727060866    2.03655340170706    3.93048819182849
C        -1.25849583432884    2.28079572948294    3.62699974629908
H        -1.56670245550311    1.87018678921340    4.58986240685709
C        -4.26448757049347    3.24947891240086    1.97238643170412
N        -3.03022410600924    4.40032458804007    5.14429646071405
N        -3.58169535957758    2.73069553400250    2.96198099250991
N        -5.58362575703523    3.40369027811473    1.97668090434488
H        -6.03314539213848    3.77859843803710    1.15954149980682
H        -6.14752354759709    2.82132897478532    2.61862907840132
O        -3.36126886715526    5.59896032223568    2.93346615136697
O        -5.25492857060335    5.28870841495277    4.43532526472140
O        -1.48247222046375    4.26335546943508    6.79908639290025
S        -3.84147352502315    5.51772382785177    4.28626858875012
S        -3.28352662347616    3.70804094806465    0.59324689688951

