74
CSD_code = TOCVAI | q = 0 | S = 0 | Stoichiometry = C22H47O2P2Rh | MND = 7
Rh        4.81746895291722    1.89558425939554    3.59164887736839
P         7.05693855088727    1.34497272096365    3.65239400636538
P         2.73402204173333    2.88568809217287    3.66666639737867
O         4.15718166933006    0.04975135101178    3.23646511586871
O         4.25661844008070    0.31528741447856    4.57292669460463
C         5.42077584595965    3.60049322292427    2.47174208779088
C         5.05696446820616    2.59139670007961    1.56353820850149
C         6.89902705608129    3.94072875965803    2.63171240206215
C         4.49319293800849    4.79917400250878    2.64264803904147
C         7.81091345209000    2.70820059926636    2.63597597042484
C         7.65968792163425   -0.24335546851135    2.79370718863079
C         7.91610830593038    1.50662828119171    5.34877023951870
C         7.27914110357159   -1.41854278944552    3.69423197154401
C         9.14457799776437   -0.27686169336834    2.42503195977956
C         6.84953779084808   -0.38095180508413    1.50029164364361
C         7.07867672901891    0.72822339814353    6.36550305272175
C         7.91919377675699    2.98243814923100    5.75706001262910
C         9.36497933622057    1.02352025159801    5.37765768656500
C         3.00707856597627    4.42249206217626    2.65478552601013
C         1.25745676336654    2.04091273642108    2.81215512871534
C         2.17870280039557    3.54698922693603    5.36864858647826
C         1.79075048536050    1.42476123294434    1.51443354705399
C         0.08560232708068    2.95662386615004    2.45138502384234
C         0.81125971788433    0.88801133723199    3.71134886850179
C         3.11448389144060    4.68753816133362    5.77868840752412
C         2.33615276660956    2.40880431243612    6.37913802750183
C         0.75261596640514    4.09320604561899    5.40622793366569
H         5.16298145295850    2.85805681975668    4.72488741980924
H         4.13203886471913    2.68086773701940    1.01151686001893
H         5.82577589311022    2.07643693201159    1.00484516378957
H         7.03530957653952    4.50664691522253    3.55510684981562
H         7.19390389306701    4.60072892541277    1.80541973455924
H         4.75183900927307    5.31922375769881    3.56688175570715
H         4.67770908885396    5.50045162393119    1.81834955866704
H         8.80645548643639    2.96697983756582    3.00270874474781
H         7.92475244877480    2.33493458620019    1.61620295560076
H         6.24686865316698   -1.30601919687961    4.02335716721528
H         7.92497827899323   -1.49057897082314    4.56553254272615
H         7.36049763765712   -2.35401650941053    3.14175894589753
H         9.46494709600630    0.65130882896594    1.95649469667274
H         9.30626782739693   -1.08215537487297    1.70847209876818
H         9.78239468144980   -0.47161851888989    3.27944309463438
H         7.13260012894131    0.36833612546353    0.76247235120322
H         5.78358380673713   -0.31016204929587    1.71326500006093
H         7.03746324856926   -1.35918232812143    1.05849728190601
H         6.02343406554417    0.97634436146726    6.25449434349214
H         7.39177109328582    0.97613561025790    7.37907672456817
H         7.18037648510117   -0.34428963314462    6.23306733053846
H         6.91954203190155    3.40352302011148    5.69273745405572
H         8.59597184802591    3.57090387464214    5.14175979599948
H         8.25062957464736    3.06881754413728    6.79114441769782
H         9.81208885355126    1.31029427230081    6.32974418690630
H         9.95382087558223    1.47770599135277    4.58342621072016
H         9.43192004909768   -0.05728148765224    5.30185519140834
H         2.67608751473061    4.21007455308055    1.63614737127535
H         2.40275816700104    5.25161164453785    3.02895252084748
H         2.04251386908183    2.18587314669162    0.77737321197164
H         1.02361275685278    0.78789022680641    1.07477035472144
H         2.66156483565188    0.80390250481925    1.72136475778246
H         0.42325766457235    3.87730234173544    1.98028683347640
H        -0.52512129309336    3.21097608727568    3.30987678497603
H        -0.55501930996342    2.43621813348838    1.73941234955044
H         1.68276029692063    0.32070340473863    4.03581425969296
H         0.15407253503352    0.21677751502251    3.15945620089884
H         0.26866610968307    1.23889889247976    4.58538355939934
H         4.15395047068984    4.37820641288839    5.71072033832856
H         2.91592582469222    4.96126207825140    6.81424473193385
H         2.96388727390822    5.57397063616557    5.16670605322318
H         1.57006604558652    1.65019821554087    6.25289232100605
H         2.26610238031773    2.79548302243385    7.39517983739946
H         3.30460587807950    1.92471377222255    6.25497142100105
H         0.01435804942736    3.30116360438465    5.32901575310854
H         0.58277357461564    4.82240471572250    4.61672137363516
H         0.59294574524423    4.59326196983769    6.36180948483360

