90
CSD_code = TOCZES | q = 0 | S = 0 | Stoichiometry = C48H34ClN6Rh | MND = 6
Rh        6.85124266681723    7.23372837560982   20.89398348309360
Cl        9.05045685897630    7.37594686643923   21.35604030598607
N         6.97801407193079    5.21506276131131   20.82492005797691
C         7.21905646464817    4.45537958783282   19.72178413269143
C         7.13707543828649    3.06408206604452   20.06670393497806
H         7.25582952064636    2.25096515796842   19.37716513500003
C         6.87804730841145    3.00343231986134   21.39300361283672
H         6.74227700822717    2.13099588349069   22.00194557915676
C         6.79804713732614    4.35692631203917   21.86473017752352
C         7.48683817341550    4.92547625843986   18.43623171866198
C         7.76253969163809    3.92829268422781   17.37947344259244
C         6.90822541703159    3.79482452887685   16.28935038182279
H         6.03583087652014    4.43008467411088   16.21633998273592
C         7.16594427294035    2.85652212239707   15.30631422585552
H         6.49347529732507    2.75991246486384   14.46592756694982
C         8.28294686588086    2.04340574230379   15.39760830180348
H         8.48458999751563    1.31229249534336   14.62868032298161
C         9.14106979534599    2.17293375418873   16.47715396767539
H        10.01625226012018    1.54397619868287   16.54984987926032
C         8.88236796202097    3.10670120778408   17.46370574697508
H         9.55277973936504    3.21675714466121   18.30309713879296
C         7.52229215554884    6.27528270085803   18.08919991674717
N         7.26280954525608    7.32651050618016   18.91353699271552
C         7.84639075259409    6.75871965599402   16.77650794754303
H         8.10900213263830    6.14009293882807   15.94063070951027
C         7.77086043095047    8.10809440029572   16.82584990152007
H         7.94077036712445    8.81067554359866   16.03350943911640
C         7.41319982002641    8.45692940417671   18.17188633555634
C         7.21261727517502    9.76418372961115   18.60964749158307
C         7.40178991779779   10.85976922399226   17.63303264214757
C         6.32096019820160   11.62534088988684   17.20856562009512
H         5.33429336799756   11.40803948775126   17.59326560525110
C         6.50404704686436   12.65047666394347   16.29794450415946
H         5.65733785468561   13.23778806408066   15.97252274156943
C         7.76865683677759   12.92529834768054   15.80527815369452
H         7.91110209383250   13.72827210432673   15.09704695098683
C         8.84994335138692   12.16851589429959   16.22534380362476
H         9.83872081614659   12.38198131715834   15.84625868531098
C         8.66885726214218   11.13977066304490   17.13183799934790
H         9.50960857450132   10.55105903728153   17.46796100497258
C         6.86879511469797   10.10743715324037   19.91522008810905
N         6.70737902661554    9.25007779681562   20.95878770850971
C         6.68186038108514   11.45816949889466   20.36587061309986
H         6.75774279164000   12.32929650802393   19.74498176191365
C         6.41434519927025   11.39682685402767   21.68982006346554
H         6.21069080189872   12.20666009784750   22.36287958661776
C         6.45406564077825   10.00936505849520   22.05872663735657
C         6.26209772360847    9.54332110397084   23.35859150384947
C         6.03659608565543   10.54062033860165   24.42700356263396
C         4.82697240048772   10.58147078806541   25.11313366102748
H         4.04697378556417    9.87775161021479   24.85732258618942
C         4.61810683075357   11.51782906343204   26.10957159756730
H         3.67342517258911   11.54310318431536   26.63355916137914
C         5.61652723349409   12.41994068342586   26.43625041532028
H         5.45336786697554   13.14928582351369   27.21600148644063
C         6.82545825319997   12.38201425987614   25.76126325846297
H         7.60877502199214   13.08083811863716   26.01617644186877
C         7.03482583906418   11.45057884203566   24.76081350401775
H         7.97863110562972   11.41161175882625   24.23731328585756
C         6.29140609823355    8.19710699155232   23.71816373530727
N         6.45241637591234    7.14031254059325   22.87668310814083
C         6.17168628840771    7.72620987156593   25.06962559307064
H         6.06141246930836    8.35459544501185   25.93170439364014
C         6.25718826040403    6.37771853829319   25.02372887539612
H         6.23095768242986    5.68416716345480   25.84128928535394
C         6.42780418541121    6.01735077827507   23.64386853069752
C         6.55864079739003    4.70554249249983   23.19299044938228
C         6.45969061198096    3.61710193985804   24.18835439834531
C         5.27354802166155    3.39616380677655   24.88135431691440
H         4.41750767506839    4.02464101559227   24.67931964298243
C         5.18581493749891    2.37775943018194   25.81315989416179
H         4.25882441300517    2.21305277296861   26.34351848775314
C         6.28277829777448    1.57192715060034   26.06816109672522
H         6.21439149878956    0.77934025023089   26.79874664423830
C         7.46798554028217    1.78748813802933   25.38460973417418
H         8.32736648120169    1.16385667924361   25.58340457206846
C         7.55654431808352    2.80117679285499   24.44810360744059
H         8.48129252786071    2.97859449400034   23.91920208392916
N         4.81428729491254    7.09812838268881   20.46748953601746
C         4.25730640347771    6.31097985968097   19.57257322971674
H         4.78441400812794    5.63502295780732   18.92724183910737
N         2.92124735469893    6.45700776326696   19.56520825367555
C         1.98153117793116    5.75960267279638   18.73362472097102
H         1.32695470316794    5.13227418893326   19.34185792710969
H         2.52091103045293    5.12915127922998   18.02970075894243
H         1.36736438561993    6.47040810850330   18.17851129546705
C         3.80162609060717    7.78206522114954   21.06512640651418
H         3.98313524510781    8.50110866826583   21.83909215489017
C         2.61839761447539    7.39103037955750   20.51183611890196
H         1.61176531167303    7.69561650480468   20.71072684447632

