57
CSD_code = TOFCOI | q = 0 | S = 0 | Stoichiometry = C20H26N10Pd | MND = 4
Pd        0.43547541050776    2.55398847900250    5.03549496156573
N        -0.26020980191398    1.48604970138653    6.58522750846255
N        -2.10848736533302    3.24707323394585    4.70870304249410
N         2.27260994935137    2.80345180980171    5.80400721386957
N         1.48429212449332    3.16054549557265    3.32077666790439
N        -1.16322619208324    1.74764157815077    7.28263067033594
N        -1.36995492820740    2.50035523857996    4.17914963549367
C        -0.82405092477721    4.82120976035937    7.66317538539577
H        -1.65582649545998    5.23547843998332    7.11738057739627
N        -2.12494012853042    4.75525201101659    9.67789200542830
C         1.45050899971959    3.97870755995848    7.65559590631342
C         0.32752636414319    4.51562791483707    6.98209842989351
H         0.41254112419947    4.81575786937946    5.92619865433148
C         3.25104647573839    2.41517657763586    4.83134145641541
H         3.14774756642639    1.33985140195271    4.63542136037684
H         4.28155768086365    2.63200713536621    5.15456515929657
C         2.54041712966011    3.43197549013994    6.88746364378147
H         3.57043393584404    3.53243244658301    7.24298259580856
C         2.91852658221343    3.19998437165697    3.54158740050448
H         3.22834706465239    4.24396829163613    3.68540519443073
H         3.46779463672507    2.77757138600379    2.69014883428105
C        -0.93859149912597    4.57438078611454    9.04922009540351
C         1.58566428324311    3.43310538174338    0.85588252106894
C         1.39134307617471    3.89918322780881    9.04911905939004
H         2.25073486277769    3.53293596912587    9.59267233582527
N         3.16011939896222    3.79705487682904   -3.02465875461926
C         0.96719570335169    3.23925221052887    2.14972070541913
H        -0.11449307970312    3.10717726919488    2.12226841153536
C         2.76156321757332    4.15168841772521    0.61021514919049
H         3.26468062729300    4.66679334491712    1.41346223015330
C         0.23215395137907    4.18505367759753    9.73023218110991
H         0.22019675341213    4.04707451565717   10.79841648286986
C         2.63843378901491    3.69558694236226   -1.77083010116329
C         3.26704484173029    4.28824374334100   -0.66163253474740
H         4.16194439997756    4.87372100258156   -0.79200508818669
C        -2.25021224533915    4.50243958979229   11.09171299090444
H        -2.15257337231774    3.43649727191009   11.32402795165624
H        -3.22622048308653    4.84395608446385   11.43002829409132
H        -1.49125067206274    5.05804874886158   11.64467929190724
C        -3.34108565060319    4.76741987322653    8.89158714290378
H        -3.46540625780467    5.72374051016033    8.37776976250456
H        -4.19553291875503    4.61568590643475    9.54526758727610
H        -3.32588136676728    3.96334093443727    8.15190288490284
C         0.92633742075279    2.89337962891040   -0.25898801494945
H         0.00175811343866    2.35601219424276   -0.10682842622142
N        -1.99149395415790    1.88894485767566    8.04929988693257
C         1.43853676364538    3.00049318880552   -1.52667936735531
H         0.89628005914257    2.54748353664168   -2.33941631873712
C         2.46172373213301    3.23541066752590   -4.15532534342195
H         2.34619663218366    2.15333850324606   -4.04596647382964
H         3.02876880391619    3.42390332763868   -5.06321877561652
H         1.47038177973182    3.68344613242067   -4.27357058620443
C         4.37651663451216    4.53704689308721   -3.25476315641062
H         4.25434536567673    5.59617548874297   -3.00538746575037
H         4.65302577714934    4.46555282763158   -4.30347933847554
H         5.19891894677848    4.13001303723226   -2.66007439613175
N        -2.91325264252928    3.94481323850819    5.11169287303877

