29
CSD_code = TOFKEH | q = 1 | S = 0 | Stoichiometry = C12H12MnO4(1+) | MND = 9
Mn        3.24778785107049    5.19886187656608    6.62102090411988
O         2.97918847610015    7.96402589187917    8.82050837338348
H         3.77612692994099    8.51198645967652    8.78509106667793
O         1.29871467963101    6.96067671826948    5.29480155046341
O         5.46571082768220    5.91880297241677    4.83028157123198
O         2.51305011333744    2.81715663510680    5.05300638982118
C         3.21956566007674    6.67212619951487    8.57755862455261
C         2.09373518666716    5.79081149941725    8.62753139851695
C         2.31014476683699    4.40750580239581    8.53255702823895
H         1.46822886387370    3.74150832253608    8.69382789365956
C         3.60875129193756    3.85724209045945    8.40820589031747
C         4.69302874795076    4.75010243591394    8.29880386654927
H         5.70303033368141    4.35201109425142    8.28329197082584
C         4.52533399488560    6.15072428043307    8.38825477767984
C         0.74978669859531    6.35656541521274    8.94248757714220
H         0.70270713838511    6.58030488772831   10.01010146687812
H        -0.04416156763511    5.65497447300527    8.70062572678941
H         0.58384817224510    7.29330368434790    8.41388759962330
C         3.83385696325605    2.38440898732692    8.54224885315421
H         3.95202520633176    2.14071622348969    9.60014290713022
H         4.73676542567049    2.06844762660391    8.02414354190038
H         2.98985486087822    1.81228400856173    8.16281605701157
C         5.71415959930024    7.06489431303687    8.45248609992941
H         5.84070648476536    7.43854380067465    9.47137674356406
H         5.61126967211771    7.91907863956939    7.78172606962182
H         6.62304113442016    6.53536561030085    8.17774829415676
C         2.06794496440060    6.26653229142046    5.76095123610731
C         2.79851108327239    3.75801435565187    5.62166899297100
C         4.57878644032446    5.63372340423273    5.48244752798188

