77
CSD_code = TOFMPD | q = 0 | S = 0 | Stoichiometry = C44H24N8Pd | MND = 4
Pd        0.00011824745819   -0.00004002981907   -0.00004636896317
N        -0.84403419483608   -1.05788655581356    1.50056027000859
N        -0.12808845362037   -1.13747978694504    2.59787259590074
N         1.94129961035802   -1.48050456496481    1.44982638528938
N         1.40540152734079   -1.42989387674358    0.25273279794476
C         1.20605368023971   -1.18684045373041    2.52737242529583
C        -2.12822637941941   -1.37733514486017    1.50529982959362
C        -2.83469042977851   -1.78412828416118    2.68454681462285
C        -4.15169443869823   -2.05013140783746    2.66612475644106
C        -4.88470516732571   -1.94938020022385    1.39016925961671
C        -4.15711700805633   -1.62118501917316    0.20432676054190
C        -2.83935577360157   -1.34479591088777    0.26241476421820
C        -6.09353608014121   -2.22641533801127    1.83098557365428
C         1.91883287704359   -1.05731486786662    3.77373550495613
C         1.23046480702549   -0.80044870592101    4.97644602227361
C         1.88740329241353   -0.65263978621716    6.15513778194791
C         3.32395547100684   -0.75318823828976    6.21631778012684
C         4.01350716771750   -1.01082584197492    4.97650691140258
C         3.32431769867911   -1.15292657923427    3.81571484829274
C         3.99189388040462   -0.61603296159175    7.36908678803256
C         1.97032577528126   -2.05239036245063   -0.76939410623019
C         3.20299304527604   -2.77705634249273   -0.66751141662692
C         3.77855351126699   -3.35150578218997   -1.73727763020449
C         3.10788629650584   -3.25928567006856   -3.04747819089906
C         1.83970265421962   -2.60400581962998   -3.12464523641510
C         1.29896697311067   -2.02517624471766   -2.03433927642959
C         4.00633224067434   -3.88152189812724   -3.78113047718767
H        -2.27371705134974   -1.85348663710396    3.60457874586379
H        -4.68984919434747   -2.33428579234162    3.55855164854103
H        -4.70343440685353   -1.61646586660586   -0.72623530163663
H        -2.27307491050888   -1.13221218037618   -0.65071264586412
H         0.15416943268537   -0.72218461675140    4.94054492898826
H         1.36098891676760   -0.45753830028004    7.07553638845118
H         5.08848764436767   -1.08567119447180    5.00893137628801
H         3.84960121834318   -1.34425624619819    2.89196404053097
H         3.67171639055921   -2.83261756617615    0.30366726076461
H         4.71898551882663   -3.87802893287308   -1.66641604513501
H         1.33928694211638   -2.60526940542805   -4.08067248524764
H         0.30933800719559   -1.55837050532684   -2.08348418004754
N         0.84407486184742    1.05789359869856   -1.50062872227627
N        -1.40533813164163    1.42971035281695   -0.25279513020602
N         0.12810816199697    1.13744256569368   -2.59792629382556
C         2.12821015537723    1.37753550401868   -1.50532816563677
N        -1.94127804945714    1.48039418496778   -1.44987302714636
C        -1.97030055129674    2.05205726702410    0.76940964105483
C        -1.20602470979037    1.18677460883195   -2.52743685527398
C         2.83460635235043    1.78458153936798   -2.68452379439743
C         2.83936690992731    1.34484860922565   -0.26246241873501
C        -3.20310767770098    2.77650508466869    0.66767684594416
C        -1.29880225861585    2.02492392556103    2.03428220773832
C        -1.91878568013394    1.05735202187991   -3.77381974226551
C         4.15156036541639    2.05082646894572   -2.66605944095514
H         2.27361954968831    1.85400298539911   -3.60454368245216
C         4.15707446862333    1.62147910721474   -0.20432820966319
H         2.27312964534489    1.13202634975801    0.65063247659549
C        -3.77868971121423    3.35076608296000    1.73753410685675
H        -3.67196271432438    2.83197770383469   -0.30344435730792
C        -1.83954716055550    2.60358544675125    3.12467483586074
H        -0.30907520511037    1.55831448426690    2.08329529203403
C        -1.23040213303583    0.80060390354693   -4.97654702716052
C        -3.32426978790962    1.15296763099123   -3.81580999610584
C         4.88458863865614    1.95003238457141   -1.39011565209307
H         4.68964607099551    2.33529109837556   -3.55843320786974
H         4.70337250772890    1.61678963883168    0.72624468432515
C        -3.10789425846693    3.25856347999214    3.04767398717357
H        -4.71926934517413    3.87705058132346    1.66680094887122
H        -1.33902783598359    2.60492397509124    4.08064683065134
C        -1.88732946102072    0.65285856379847   -6.15525220143070
H        -0.15410493098097    0.72231374928770   -4.94063094596949
C        -4.01344706316258    1.01094254298437   -4.97661764634451
H        -3.84956796674458    1.34422831433146   -2.89205390823650
C         6.09334545229962    2.22740189661110   -1.83092355495001
C        -4.00646054234988    3.88054682884785    3.78139031315897
C        -3.32387858879080    0.75337146122548   -6.21643803565576
H        -1.36090245092730    0.45779434217308   -7.07565227566769
H        -5.08842677327820    1.08577208214097   -5.00904572865312
C        -3.99186949093485    0.61627255186804   -7.36918104867756

