98
CSD_code = TOFPOV | q = 0 | S = 0 | Stoichiometry = C40H48ClCuN4O2S2 | MND = 3
Cu        7.92148387093918   20.29543791353083   21.23435102765235
Cl        8.52067642677189   22.49613471187718   21.27639331074251
N         6.51703174928586   20.41596428119069   17.00964416300722
H         6.44220626145225   21.23319039949584   16.39467130429018
N         7.76896178245460   21.81469389073575   18.36458874102974
H         8.19579944727005   21.94347171963486   19.29468754616708
N         7.24316731518847   20.11155235619808   25.65396750742239
H         7.40468014027318   20.85631937786700   26.34027188919833
N         8.36311494681654   21.51207742894833   24.19190176336372
H         8.59187372757582   21.70653527045832   23.20530814283289
O         7.04619874123797   22.94733797660320   16.51845850747144
O         8.20079581125434   22.49428140912210   26.24715368901171
S         7.44716076939345   19.31857640210219   19.20445432405514
S         7.55178716633461   19.18307009373139   23.21718649584819
C         7.21026109326200   20.58785302353179   18.12662486461053
C         7.67668042382349   22.93035882542142   17.56303628429232
C         8.40113092814240   24.10488462321458   18.09530912280889
C         9.63306669750978   23.98210246346547   18.73393366121560
H        10.10973819760156   23.01779607211048   18.82384126157308
C        10.26258790788927   25.10695862177045   19.23210012425610
H        11.21502643863998   25.00899030225865   19.73021718093634
C         9.67182997727292   26.35304558528555   19.10306709045773
H        10.16139740989442   27.22633127768475   19.50827272719855
C         8.45851903190293   26.48225083067303   18.44678456675626
H         8.00261623338562   27.45481900437894   18.33609013084187
C         7.82865050024081   25.36417402964618   17.93484740404636
H         6.88189376764208   25.44571801106965   17.42211663939230
C         5.86973124640992   19.19647386447603   16.66513162534603
C         4.62690709956578   18.89640167159932   17.22615708486886
C         4.02422617561514   17.69659585654923   16.87243617456012
H         3.06716406745434   17.43582765176529   17.29685715896740
C         4.63577100449390   16.82746270299905   15.99059532027616
H         4.15496579795872   15.89549834089276   15.73245455701759
C         5.86352354970048   17.14409513868465   15.44189183241562
H         6.33505323238864   16.45300861565574   14.76114610039702
C         6.49997604077824   18.33363902142446   15.76649742195412
C         7.86405638453115   18.65977384581908   15.20613065929845
H         8.09094655544153   19.70939240576719   15.41782484559361
C         7.92414982562572   18.46965042695408   13.69015394019572
H         8.87715969966571   18.83118855232264   13.31049033193692
H         7.12580622175987   19.02661953434822   13.20478991649547
H         7.82935645352006   17.42203595984141   13.41814225672513
C         8.91450759893092   17.79659191825329   15.91047692908216
H         8.74333609818509   16.74316347700371   15.70259730754449
H         8.86211807544139   17.94481628808975   16.98654968524180
H         9.91240530775235   18.06108499718696   15.56775730244124
C         3.94106815904003   19.83353212989461   18.19210865173720
H         4.55039358274648   20.73474545270461   18.31075668215755
C         3.80221031247120   19.17624621920713   19.56708497729745
H         3.16034213335532   18.30078406626082   19.51657609919585
H         3.37139224846305   19.87914785299077   20.27655080830289
H         4.77651021598271   18.86494642101148   19.93659068594632
C         2.57598398941445   20.26471571812021   17.65047713533410
H         1.90113404609739   19.41659914094984   17.57143142618209
H         2.68195223800196   20.71289889287610   16.66478972595157
H         2.12652223963642   20.99758210719416   18.31683816816059
C         7.70980992202125   20.33395919182760   24.43322792172770
C         8.59348326438648   22.52792865940370   25.09253897328301
C         9.35385691089127   23.66033058198136   24.52090025646197
C        10.40033193209480   23.46035537812316   23.62336364029663
H        10.70415828287640   22.46106889990647   23.35017738615420
C        11.07357387476193   24.54815034210078   23.10101169536533
H        11.88504944700557   24.38925312955265   22.40700292715011
C        10.70630855739385   25.83472371787065   23.45919621087927
H        11.22575715202085   26.68161453788304   23.03548088347384
C         9.68067055511712   26.03660235264488   24.36846776009164
H         9.40068706542979   27.03895667947994   24.65621753020749
C         9.01296648646982   24.95373314542049   24.90760193620189
H         8.21069126366044   25.09238503514752   25.61678201583295
C         6.55720850608061   18.92432356800045   26.03405577832411
C         7.26966090911901   17.92436017676015   26.69879806093632
C         6.59408957860269   16.76865020606115   27.06402235729318
H         7.12427829629825   15.97482944936036   27.56627320127898
C         5.25029543120756   16.61699729709473   26.78145057282687
H         4.73888231747900   15.71007221394356   27.06830147677428
C         4.56059299070547   17.61947860406124   26.12838961517457
H         3.51220132031175   17.48720064505765   25.91047125316144
C         5.19854850394424   18.79080804527404   25.74239962306199
C         4.42688047197378   19.87557611047863   25.02903479646224
H         5.09369398636321   20.72141312947006   24.83630883751791
C         3.27426752697499   20.38144875755235   25.89979372943741
H         2.54665333048957   19.59467877182400   26.08047001820125
H         2.76880702420414   21.20712550827384   25.40381520247901
H         3.64765527264480   20.73150277649550   26.85983902765935
C         3.91274342489959   19.36743294185860   23.68032990273071
H         4.73952648402098   19.00256292077841   23.07560728542927
H         3.41802544297996   20.17332875193128   23.14260643237580
H         3.20248510100044   18.55596301807307   23.81482683688441
C         8.74884175701773   18.07180654308972   26.96674131673397
H         9.04326995751837   19.10718915518397   26.76885479074893
C         9.52663265159739   17.16776874267135   26.00631162265085
H         9.28856925427604   16.12272314697022   26.18871409682458
H        10.59716992119565   17.30831398981289   26.13860129144949
H         9.26662346324529   17.40216051789644   24.97652885794991
C         9.10063209307560   17.76125401927947   28.42225740534514
H         8.49461147210645   18.36253828612423   29.09657663869222
H        10.14860578729396   17.98843099475046   28.60515954007234
H         8.93769664538844   16.71225588751426   28.65392701333149

