39
CSD_code = TOFQEN | q = 0 | S = 0 | Stoichiometry = C15H11AuN12 | MND = 4
Au        7.90699835022077    6.71716660474760    8.21987551523120
N         9.88698118290801    7.26639789438880    8.12333272311141
N         8.04538513907256    8.77022115257675    6.79251600328662
N         4.62770477097733    9.38046169169108    6.18998231885192
N         8.31229582014764    5.33048939823363    6.93759685733125
N         7.57904128385453    4.71739429976002    6.24907175147661
N         7.00848511742856    4.07624453991173    5.51936989997842
N         6.09625357882099    6.11309267084299    8.31372256019269
N         5.12204895682533    6.71711755854677    8.59017608639291
N         4.10445552120399    7.14904377107240    8.80215680699423
N         7.63626716648738    7.98782268459644    9.65756401032843
N         7.19543091432317    9.07736122870242    9.62925408285546
N         6.83033380411503   10.14131433561876    9.71571680056401
C        10.82554691291762    6.40794174365755    8.50378519725823
H        10.47780448760902    5.45213704470762    8.86436581832943
C        12.17251135887928    6.70849609640440    8.44165378840433
H        12.90228503307228    5.98445200587207    8.76487056101781
C        12.55274898268729    7.95060743480110    7.95292309660271
H        13.59568118885149    8.21903542525846    7.88008452251657
C        11.57196779029622    8.83715841024685    7.55111421481117
H        11.83173043566404    9.79987739773918    7.14125567287980
C        10.23062962403490    8.47068378422692    7.65062523476384
C         9.14932499817578    9.37412511536277    7.23411721103813
C         9.24459235814538   10.75751807096172    7.33929694058930
H        10.13583369729176   11.22206039945313    7.72957974258038
C         8.13736789027124   11.52264547373614    6.99598304814710
H         8.17013694626115   12.59651373726886    7.09802030517989
C         6.99299004660502   10.89355260301909    6.54888655669542
H         6.09703419471884   11.43329658137224    6.29233689108618
C         6.98852796037175    9.49935719287328    6.44951880294251
C         5.79548222853880    8.76766453362178    6.00855518549750
C         5.89852911135281    7.48960109767600    5.46282756183143
H         6.86964598126965    7.06361378019098    5.27062264361862
C         4.73445174014181    6.80226344087931    5.16333957559654
H         4.78466982193672    5.80019889146089    4.76340281145413
C         3.51861502143260    7.42220926572031    5.40245791888193
H         2.58677162694366    6.91656830381209    5.20572486626640
C         3.52591035237491    8.72144230614480    5.89592566387519
H         2.60442860377149    9.25865203284267    6.07469075153941

