46
CSD_code = TOFQUA | q = 0 | S = 0 | Stoichiometry = C17H14Br4ClMnN2O7 | MND = 6
Br        0.34183824911551    5.52523051705328   12.93673348713542
Br        2.52779243184080    0.92477854071954   10.39943531239055
Br        4.64487182459946   13.91774970277962   14.63200052602294
Br        0.45052825207947   10.28354763948444   13.49369367752355
Mn        3.17716999601367    8.29646872714216   10.57152651344292
Cl        4.34010001636388    8.31717721145210   13.50252772369002
O         2.46750562109180    6.82958273567022   11.32189242880371
O         2.24729833207204    9.62064065418487   11.26496633491526
O         4.69414477825833    8.23560815476013   12.07352802919162
O         4.85972335691492    9.54334492995284   13.98195431865276
O         2.93203464905337    8.31408446273886   13.59386467529737
O         4.91160339922554    7.21081158812403   14.14597129563159
O         1.55555717677213    8.18124953563991    9.06033483308868
N         4.34788132584374    7.11342299061666    9.51843835215900
N         4.33174384885546    9.64995849886656    9.78084207430207
C         2.45954054125962    5.57936763549892   11.07316532439596
C         1.57986569538785    4.70357003634429   11.76519192517574
C         1.59294569450022    3.34774326042514   11.56930829672539
C         2.50930648060945    2.80445359498607   10.66321990645446
C         3.37910473634100    3.59894946232764    9.95990572366653
C         3.36671772233580    4.99322611973320   10.13214834348122
C         4.30657755729922    5.81846559830215    9.45479593511994
C         5.49005842322385    7.77190160988143    8.91225225448025
C         5.08545807555261    9.22196395139682    8.62535022965675
C         4.70148799438411   10.69600826381572   10.44026320334388
C         4.01529779021339   11.16924048887826   11.60091131347056
C         4.54417895145099   12.19375448087430   12.39471119905721
C         3.88601693021306   12.58503007371096   13.53676189999928
C         2.65930596850343   12.03354428889410   13.90272538850908
C         2.10512076944626   11.06790805860956   13.09947931054095
C         2.77395328565130   10.57028261012151   11.96228056861722
C         0.86652928833819    9.35105556524149    8.61988140310513
H         0.90838208597313    2.71141245618966   12.10829052085993
H         4.07565735443272    3.15883231805788    9.26237161875939
H         5.06767658683169    5.29517257392112    8.87328012097304
H         5.56678682814589   11.27150676883315   10.10806429421805
H         5.49037972307380   12.64006041373932   12.12948547288215
H         2.15536870068946   12.35277220392353   14.80252847769107
H         0.89331509101235    7.61385031907842    9.48589731104721
H         0.09168582145810    9.06981434255006    7.90147156842310
H         0.41568612626312    9.88856614498658    9.45699006797236
H         1.59943855305779    9.99037927493377    8.12966875396207
H         5.81753836873729    7.26045219572171    7.99966907352558
H         6.30649864777963    7.77245043082345    9.64496167011854
H         5.96450640716370    9.85135414197286    8.44406401369173
H         4.42772054256355    9.25055542703701    7.74889522783341

