66
CSD_code = TOFROV | q = 1 | S = 0 | Stoichiometry = C27H34CuN2S2(1+) | MND = 4
Cu        2.20673139490440    1.90906522424124    4.20976953628039
S         0.12170198751298    1.76174182078186    3.08137103365787
S         3.60853198198863    0.18038471124794    3.70955980748729
N         1.64084262012959    3.19868332670935    5.76935097511007
N         3.42448716837401    3.51117892230023    3.54636472652600
C        -1.81641174876124    0.53407464802374    0.88327087023466
C        -2.96162021948920    0.03069391840951    0.29368988040991
C        -3.21667576103671   -1.33017756411290    0.32104700001722
C        -2.32276462299412   -2.18653945772886    0.94094324840398
C        -1.17937450074029   -1.68404468579477    1.53656543102082
C        -0.91809667658842   -0.31901940214379    1.51050750928055
C         0.34047553206247    0.20975851303833    2.13016981410695
C        -0.60858569386619    1.24281824083766    4.62756053358174
C        -1.26369466865823    0.02862908021841    4.75375120733766
C        -1.81688089543678   -0.33477663933218    5.96988616362684
C        -1.73193702149047    0.51506968606720    7.05759007143043
C        -1.09385192448360    1.73653446513398    6.92244147906968
C        -0.53201148614796    2.12020838288612    5.71390472959887
C         0.19676087120046    3.43134281807940    5.60073305813088
C         2.45477191762932    4.41073610725083    5.63401503586731
C         2.80319300741577    4.68242140829929    4.16554552878346
C         4.81099726733083    3.28922901550862    3.97149613925830
C         5.53095942209689    2.22029957776449    3.18530092273989
C         6.71713234498976    2.58980447109955    2.55423141844338
C         7.49163796099731    1.68778373816763    1.84845869004584
C         7.08639558059266    0.36913911182606    1.74769509309164
C         5.90767112973479   -0.01990372188489    2.35378476840723
C         5.13823200560507    0.88376484654045    3.07790526135713
C         4.02027597651636   -0.51472084654144    5.40237934788231
C         4.95980135412084   -1.69504118110451    5.22592844190069
C         2.66548584307986   -0.94794955575685    5.94839377789392
C         4.63984226687137    0.56275576484674    6.27245731032241
H        -1.61772405598375    1.59602431551697    0.86501266586237
H        -3.65445867479328    0.70218026141135   -0.18957296239106
H        -4.10963145402490   -1.72278699586418   -0.13986376416779
H        -2.51493716727713   -3.24832217348328    0.96355634169221
H        -0.48157783054127   -2.35614789288456    2.01725165577807
H         0.81552477919599   -0.52052094175211    2.78535712550089
H         1.05436441716790    0.49969994525817    1.35499736818112
H        -1.36056413770222   -0.63198978294943    3.90837300143943
H        -2.32402227293098   -1.28271576174869    6.05718181635890
H        -2.16708303768772    0.23528854944033    8.00363587277294
H        -1.03923996186597    2.40955892480012    7.76571635708275
H         0.03015512487518    3.86692059191788    4.61319660909977
H        -0.17533252851899    4.13362925458243    6.35742480830531
H         1.93459206451436    5.28645548786885    6.03979901386756
H         3.37519809861132    4.27590233234645    6.20507630738564
H         1.88894641229552    4.90253369054456    3.61176932413802
H         3.45660750223100    5.56374673077331    4.11980481598399
H         5.38635820449451    4.22171028675710    3.88180601279282
H         4.79876204847207    3.01281124753700    5.02827458694181
H         7.04387725919227    3.61709916065791    2.62332898170957
H         8.40331364487603    2.01796105302647    1.37631466198689
H         7.67326853160890   -0.34787582129120    1.19621999092544
H         5.56215305476582   -1.03797612641447    2.26474722583390
H         1.77574766724130    2.80316842764582    6.69695071568643
H         3.40790685146011    3.61950368184771    2.53517047173616
H         4.52701847302943   -2.43624037429691    4.55867429030077
H         5.91611289322881   -1.37276024274003    4.81962135439880
H         5.14056467673933   -2.16609199132797    6.18973467304483
H         1.96902377241353   -0.10530002326815    5.95907653029707
H         2.23889509062473   -1.73896374107124    5.33615996945393
H         2.77461296461922   -1.32194889381738    6.96344398496822
H         5.58360105925701    0.90696698902534    5.85345755084841
H         3.95572701363973    1.40459653621449    6.37515883061737
H         4.83901710330024    0.15923855155430    7.26347499962468

