76
CSD_code = TOFRIS | q = 0 | S = 0 | Stoichiometry = C30H41AgBIP2 | MND = 4
I         4.12037999932690    6.17386454673836   13.17304141168895
Ag        2.13234394275668    4.56807781926055   12.20195474552724
P        -0.20829551078763    5.73747236708353   12.22441857860476
P         2.91953356432245    3.77812386148475    9.85352263710994
C        -1.27872001195577    4.38398226299399   12.80847658337843
C        -2.43174840055018    4.59219391870822   13.56022302600367
H        -2.71840104816102    5.59061298752919   13.85603682234170
C        -3.21096496475179    3.52196617665397   13.95562867127277
H        -4.10581543170523    3.69058245838011   14.53708716914960
C        -2.83267205721703    2.23359669273132   13.61496914671868
H        -3.43120489648051    1.39102102153660   13.93017854844203
C        -1.67540390432033    2.02384973676897   12.88940649907626
H        -1.36881689300987    1.01032661181522   12.66266225426791
C        -0.87964660610795    3.08775864617183   12.46055998064411
C         0.47857975023647    2.43642037003325   10.16774197712031
C        -0.61418836347399    1.72987570486968    9.65178300743240
H        -1.44277114963634    1.49873845074934   10.30651896175247
C        -0.66679761436439    1.31429511558794    8.33616789151843
H        -1.52544998787547    0.76505802815881    7.97801386747314
C         0.37777448034754    1.61322166498449    7.47752495439391
H         0.34419138077886    1.29906916956441    6.44446140942007
C         1.45740464678167    2.33553689366530    7.94828421379878
H         2.25401636154583    2.59448162754602    7.26675888606176
C         1.52251270925813    2.74741494402185    9.27557016074921
C        -1.23812811933992    6.42556523651580   10.80988253088882
H        -0.58037542760308    7.14960069788884   10.31034051260678
C        -1.53874724168351    5.28487405641506    9.84062300767950
H        -0.63943171074579    4.71753679576542    9.60959764856529
H        -1.94608572835572    5.67471526162043    8.90914846146326
H        -2.26796943433703    4.60023811598373   10.27215107189656
C        -2.53251830495675    7.12786427881569   11.20414598644553
H        -3.19060131534140    6.45372849751724   11.74848571155475
H        -3.05310552061973    7.44189561471910   10.29995426112810
H        -2.34983079451690    8.01441860085405   11.80583714339428
C        -0.35974488291909    7.04575141704266   13.54320995189260
H        -1.41272677921858    7.31298379711953   13.68502170763592
C         0.42853627168704    8.27276128878312   13.09234174978451
H         1.46685250696940    8.00112273146551   12.90041281407009
H         0.41606703976025    9.03484533363565   13.86901364476818
H         0.01045869094205    8.70266393490002   12.18386284272387
C         0.20214397569417    6.49666054828445   14.85096210544876
H        -0.36770037261897    5.63314335722271   15.19467560074524
H         0.16466375246027    7.25992871198611   15.62591606471371
H         1.24602106945461    6.20448752769244   14.71961415034739
C         4.40752721952090    2.64870513966658    9.62634307094573
H         4.02550074100102    1.64404396140345    9.84945751366475
C         5.43556700582283    3.02263538617467   10.69498685766170
H         5.82794622956076    4.02321883377382   10.52827131334199
H         6.26830652078296    2.32113005240855   10.68491145538724
H         4.98623241256276    3.00588411817076   11.68854747639704
C         5.05788296639057    2.60690607989276    8.24715708132526
H         4.35983215622207    2.29114063762794    7.47554475214328
H         5.87280344104168    1.88375725923222    8.26749164915745
H         5.47787583900006    3.57104406970555    7.97323606034993
C         3.09269731639999    5.05535311369485    8.50054752354389
H         3.35660292023344    4.57378597571604    7.55305927879862
C         4.18547061603218    6.03806173875717    8.91375518785701
H         3.95533235956402    6.46080480735564    9.89297006965070
H         4.25183992362727    6.85229119908160    8.19400900770713
H         5.15965768082579    5.55991663999500    8.97334447973604
C         1.76900672733634    5.79482024770279    8.34555967635550
H         0.98443261619140    5.13485977904341    7.97917919006367
H         1.87838069173270    6.61853255138417    7.64206595438481
H         1.46637997419737    6.20861526762932    9.31049873935218
C         1.62019832534403    2.25616176990546   12.63195426482231
C         1.74205579398793    2.76288934452233   13.94159418784006
H         0.95219639684305    3.38812498563711   14.34430547216732
C         2.78872554348540    2.38193649451490   14.76717351044861
H         2.86436020083330    2.79300195676775   15.76347354724229
C         3.72312263220108    1.46265196556816   14.32183981711558
H         4.53824248263379    1.16524427899453   14.96408662300109
C         3.59759989312163    0.91040190269926   13.05449444357641
H         4.30810530212743    0.16985265783499   12.71581196599991
C         2.57130868642184    1.31055840021253   12.22299055539585
H         2.46314066875757    0.86012862495767   11.24430209474192
B         0.45635104652740    2.71591387870317   11.71344880812488

