52
CSD_code = TOFTUD | q = 0 | S = 0 | Stoichiometry = C21H22N6NiS2 | MND = 6
Ni       -1.26006035059201    1.73644033556777    3.67594265520243
N         0.41794213718990    1.73291046579608    4.42710684527381
C         1.57011624968526    1.52056155782939    4.28326580248491
S         3.13623596784923    1.31859482282665    4.23826710610874
N        -0.55158086695457    3.24847133927421    2.26547516758866
N        -0.81177094217610   -0.39243346769663    1.77218005371807
C        -1.12210218958154   -0.22487760221820    3.07383300505620
C         0.41826318645879    0.21691740971632    1.34455982144004
C         1.53394112678884   -0.61018415400422    1.38376783559758
C         2.77798934357974   -0.14805296882649    1.00216670274014
C         2.91310997512392    1.15886703583653    0.56922655422975
C         1.80781771016714    1.98664952931545    0.53899141275799
C         0.54430851108667    1.54738123964141    0.92621584433045
C        -0.56516597355327    2.57618833167064    0.95196169998133
C        -1.44089682627721    4.40570966316864    2.36757747616099
C        -1.26011846790673    5.19751311901719    3.67596185264968
H         1.40537493715946   -1.62356665875062    1.73279497664960
H         3.63607154896209   -0.80009577746518    1.05062440008206
H         3.87856960582359    1.53837317993798    0.27197267730191
H         1.92407472591461    3.01164272085518    0.21372619864479
H        -1.55402381400095    2.13099126326907    0.80374584567123
H        -0.39529063307532    3.30774476015094    0.14472706619760
H        -2.46892221146463    4.04020856508171    2.29317272788684
H        -1.27066181910806    5.10295310678485    1.53010162912647
H        -2.13519081701656    5.84498714408068    3.76897165820403
H         0.40532569322033    3.56329304662356    2.43698836797847
H        -1.60233644213335   -0.21892497609320    1.15708640398565
N        -2.93813316158835    1.73302553826664    2.92499189640870
C        -4.09031721431816    1.52165738566984    3.06944606946356
S        -5.65632434845931    1.31951710703581    3.11432840955829
N        -1.96849696291040    3.24843004370082    5.08646334615596
C        -1.95484645202344    2.57614385822666    6.39997303472799
C        -3.06430178420031    1.54731947700963    6.42580893955768
C        -2.93825149908963    0.21683829057805    6.00752008868782
N        -1.70825105123348   -0.39248525789909    5.57976112215030
C        -1.39800961117766   -0.22484559530832    4.27809704736662
H        -0.91764824528750   -0.21906535846270    6.19482908511506
C        -4.05389903758627   -0.61030865844711    5.96848414849051
C        -5.29792619051472   -0.14819603963903    6.35017372234071
C        -5.43305726312852    1.15875228728036    6.78302522679422
C        -4.32779122736497    1.98657406684896    6.81311014965210
H        -4.44405472235795    3.01158481396854    7.13831648449742
H        -6.39850481256433    1.53824587099257    7.08033407607195
H        -6.15598551397382   -0.80028098264593    6.30186473521339
H        -3.92533165650223   -1.62370916455634    5.61950917197684
H        -0.96597709452051    2.13095794400479    6.54814310210428
H        -2.12468293034439    3.30771551644523    7.20719859038039
C        -1.07919990426272    4.40567756798764    4.98430187767978
H        -0.38517541438731    5.84516846845388    3.58298970254991
H        -0.05116333290558    4.04018971367959    5.05860970181710
H        -1.24937484287796    5.10288713415849    5.82181442175071
H        -2.92541509158830    3.56324294126317    4.91499406244004

