68
CSD_code = TOFVIV | q = 0 | S = 0 | Stoichiometry = C33H28ClN2O3Re | MND = 6
Re       13.38754173693650   15.03341059565262    8.82508976953732
Cl       14.56069294663904   15.46079548881978   10.85268301273923
C        14.47341086814804   13.42568297538140    8.59874544196623
O        15.17943164339390   12.53291559555178    8.50222870555199
N        14.88945579749674   16.33909959325065    7.97973918528425
C        14.72317136948209   17.55529147741694    8.37296375399180
C        15.49989116544840   18.77687844641517    8.20679664105200
C        14.70987237504926   19.81509077253060    8.75929430529206
C        13.46601094687175   19.35425072797211    9.25678367026483
C        13.45563802651152   17.91516567837944    9.02868886641447
N        12.56191314035707   16.99996411062136    9.18534780502465
C        11.25518727335995   17.37055860548109    9.58473400509185
C        10.34918068294735   17.73757251182272    8.58411271775675
C        10.78966198958912   17.80806827483859    7.15300944348895
H        11.51510221299861   18.61170205187976    7.01178999889510
H         9.94061114493804   17.99599834864212    6.50159105449407
H        11.26146975132284   16.87304451720685    6.85218028406916
C         9.04808686504965   18.05082318609476    8.94208402855499
H         8.34624494815066   18.32643364382530    8.16810074382450
C        12.59769315294254   20.26192037155467    9.81373389039190
H        11.63684130613526   19.96565225877405   10.20623267746738
C        12.98870139145488   21.61264851487219    9.86556415797180
H        12.30353278580284   22.32183468753107   10.30648558141363
C        14.19547209025123   22.05855667741710    9.38336403050137
H        14.45298578907233   23.10570749105770    9.44611368872508
C        15.11115990606998   21.15299274735665    8.80126516373636
C        12.42760288327331   14.63943849252037    7.18277910422975
O        11.85285149894020   14.33918073670918    6.23086422977478
C        16.73117379266509   19.08874269127836    7.68264642158723
H        17.37340058375558   18.33756360439979    7.24866138464143
C        16.38378232644396   21.43746727497870    8.25643040001965
H        16.74856246510189   22.45414709264132    8.26468636626755
C        17.15114882459012   20.43120184335933    7.72141971260097
H        18.12110306191615   20.67062720990839    7.31073163896028
C        17.41536184356922   15.43762892968242    9.11601330101496
H        17.22499608583438   16.38601331892672    9.61988463312590
H        18.43606778794787   15.12950839936877    9.32782088284408
H        16.73692185602697   14.70323944378571    9.54868795228709
C        17.19379208418660   15.55921313539113    7.64268070678013
C        15.98154571271279   16.03046054352134    7.13324006167830
C         8.63111191620915   18.01957002368776   10.26431983201808
C         9.55750871959038   17.68378604224691   11.24040347537087
H         9.25380446236217   17.67277952603453   12.27743928541923
C        16.83768149107575   15.85805768295378    4.90106439871567
H        16.69929979279283   15.98255669014771    3.83665458865880
C        15.80414396868680   16.20208466910099    5.75561128302745
C        14.52185395057214   16.76588726796929    5.22172669023414
H        13.66968371362628   16.20387403251904    5.60303073219567
H        14.51006775902066   16.72375069109568    4.13603367154949
H        14.40150945539389   17.80745808281484    5.52609495667930
C        19.13382605390034   14.96885562671142    4.43191451182790
H        20.09845810242158   14.95388290573322    4.93329855753304
H        19.18219141815466   15.65653283260347    3.59002211811299
H        18.94046044987836   13.97071478254131    4.03817169711596
C        18.20255314965871   15.22836694871179    6.74959451456965
H        19.13952115001896   14.85895764901878    7.14124539614140
C        18.04185457906704   15.36092005272630    5.37939007902965
C        11.85112726549898   17.04347638717955   12.00933161925924
H        12.71599526126082   17.70624186077960   11.95897206001291
H        12.22213200504121   16.02450547812789   11.90672912806871
H        11.39133608133390   17.14544442945768   12.98899512844238
C         7.21265362679435   18.32906643996543   10.63301350423145
H         6.64494099803282   17.40271703525007   10.72449601194064
H         6.73708777818200   18.94329329925084    9.87212579005338
H         7.16382524111034   18.84657984708077   11.58868086622734
C        10.86948280885310   17.36222612048595   10.92797109476045
C        12.01130067387276   14.13125243709489    9.87743143064812
O        11.22011601420992   13.67346909189466   10.56226815884035

