50
CSD_code = TOFWIW | q = 0 | S = 0 | Stoichiometry = C27H14Br2ClN2O3Re | MND = 6
Re        3.57264682055464    4.59056511179848    2.02912779086237
Br        8.52240605058313   -0.27154687503614    4.55361095142833
Br       -0.31440685369738   10.83599491750739    0.71226501219301
Cl        2.78617987579888    4.53045645723411    4.27182505345625
O         0.62262175221600    4.81948312948969    1.13607648870854
O         3.61283121825075    1.50682444707056    2.20401452783699
N         5.47242019868269    4.73602969245097    3.03377091929229
C         6.22106352195029    3.61434755719959    3.39712731502240
C         6.75840665999317    2.79669478255485    2.40197148802420
H         6.63201948339248    3.07174348712050    1.36468991799567
C         7.44913404178061    1.65278994077099    2.74405482020772
H         7.87710568621278    1.02488718959944    1.97842975112876
C         7.57573884946339    1.30883293382449    4.08158535510741
C         7.01923380556082    2.09225671801090    5.07966643838787
H         7.10495747746093    1.79881192399038    6.11445812388216
C         6.35117681396475    3.25120501844809    4.73781226236913
H         5.88610763877199    3.85621106432103    5.50209878990597
C         5.70093596235461    5.90630507077312    3.53356999887042
C         6.74348028570686    6.48522448076913    4.37053868859554
C         6.39131618792852    7.84927367835655    4.53334187779301
C         5.19973001780538    8.19787270275733    3.85001639184657
C         4.73221215631565    9.48663777959392    3.94929032921974
H         3.82368274573188    9.80426968319351    3.46090725115967
C         5.46828597837495   10.40817940052081    4.71548149483045
H         5.09465749396778   11.41866377702535    4.79012988649479
C         6.63449710931665   10.07482928340191    5.36054350800812
H         7.17153794223638   10.81722901129492    5.93203967779798
C         7.14118464613481    8.75780829638544    5.28595887269433
C         8.31849291495359    8.25319484903626    5.88193305734391
H         8.93606448550768    8.90998635369258    6.47632820630421
C         8.67658914985363    6.93894039281340    5.70318386529015
H         9.58460249729752    6.57320039597801    6.15935720552927
C         7.90490690175043    6.03409031516931    4.95284377189341
H         8.23700338544473    5.01223776106299    4.84924157412391
C         4.75651557494619    6.97994800935751    3.18872279537367
N         3.75280653970403    6.68137478278998    2.43487360529086
C         2.82474087857034    7.66575594479690    2.05615296070870
C         1.54556642599528    7.65316972903937    2.60702907316412
H         1.29358005503520    6.90832257060462    3.34742139309761
C         0.61526174330729    8.59374094027565    2.21235476104705
H        -0.37488947928930    8.59244044009714    2.64049259790083
C         0.96500192176099    9.53621231975342    1.25871627159974
C         2.23061765556672    9.55357223429721    0.69563502301550
H         2.48499384682764   10.29053589212927   -0.05019548136812
C         3.16470062516499    8.61959152387819    1.10041426973558
H         4.15407389204707    8.61485971707464    0.66685851522889
C         1.72545228065140    4.69627761632664    1.40351320209804
C         4.30348634537213    4.71964190217020    0.23263946030722
O         4.76853362323252    4.82353228169808   -0.81213114132983
C         3.57023516926683    2.63699336782910    2.05091203006275

