133
CSD_code = TOFWOA | q = 0 | S = 0 | Stoichiometry = C70H58O4W | MND = 6
W         1.95301063885154    3.52434004647337    4.14131239941546
O         0.67469280679135    2.06647704116671    4.22576586434573
O         2.25004288679434    2.95064006800574    5.92775115032551
O         1.17348838189829    4.10887265715062    2.64324003088614
O         3.61728278878625    4.38788390880702    4.09926309887770
C         0.82694666844893    0.90168370108372    4.87087746453864
C         1.62558198339622   -0.11907679184073    4.31064239819373
C         1.72802249300202   -1.34467779191881    4.98536071885650
C         1.11011379396524   -1.51162733123545    6.21693891254972
C         0.34946044472279   -0.50243528545228    6.79240107572280
C         0.19296919629964    0.70434218968544    6.11052017356470
C         2.58978987525154    3.85200870915083    6.86751137634669
C         2.23324293816480    5.19228984343306    6.59469183050356
C         2.56769544592624    6.18758090789821    7.50928446193461
C         3.26909984983881    5.83067652158773    8.66029724443870
C         3.59967661372845    4.51372550543472    8.94628422542190
C         3.23552316748424    3.48982182715896    8.05714543935673
C         0.13400985953698    4.82769133199206    2.06347627579476
C        -1.06181831169633    3.87864372485379    1.80265512341186
C        -0.93087127159337    3.49399231600474    0.33167243604194
C        -0.48194457813521    4.80020522527284   -0.31912222118634
C         0.54117258207827    5.36631945856373    0.66808561812651
C         3.83980371346741    3.22478472137108    3.33439078215672
C         5.08327964114300    2.47136985977492    3.88300896457292
C         6.15241466461513    2.54442410727110    2.78242891294591
C         5.75997933904001    3.76230511522138    1.94985812467860
C         4.23355898647414    3.66647427655510    1.90197545619487
C         2.34002328231061    0.12801045606712    3.04505596349439
C         1.73471859045898    0.81981051846761    1.98951601623670
C         2.37459465144973    0.93170454401891    0.76533806096558
C         3.63084919675282    0.38178159368744    0.57458975765547
C         4.25858963478207   -0.26395792463817    1.62640563200989
C         3.62651858858144   -0.38027324827006    2.84920399001291
C         2.39761922476905   -2.51842449028561    4.39327664141984
C         2.08210532422236   -2.93870173758770    3.10320889628538
C         2.67802662168245   -4.06397702164354    2.56687442910445
C         3.59673192668887   -4.78848947076022    3.30872543251614
C         3.90672616030862   -4.38712727994298    4.59677789955888
C         3.30637570017540   -3.26480594726492    5.13787414088967
C        -0.32341548253592   -0.75103155735991    8.07972643755963
C         0.39751638848714   -1.27326006649275    9.14908621255882
C        -0.21894970618661   -1.51514048613856   10.36265234858363
C        -1.56924054517037   -1.25408255154873   10.52140496337297
C        -2.30006520079623   -0.75549843999639    9.45600659286375
C        -1.68383868777031   -0.50523617625022    8.24432633759806
C        -0.60687710885107    1.80100410135359    6.69067304298857
C        -1.73783330601340    2.27750448282599    6.03315351008464
C        -2.53299946950265    3.24388559845926    6.62382768223284
C        -2.18955156872147    3.76625470244009    7.86031207670575
C        -1.04655746544480    3.31878730714908    8.50493395059193
C        -0.26411782939753    2.33387621751392    7.93041056031559
C         1.49937702056950    5.36300996155628    5.29912726686849
C         1.78395865585331    6.49256620958803    4.41301332971914
C         0.96306226199988    6.80749046341628    3.40073096518219
C        -0.24789496171215    5.97160732532112    3.08064454506232
C        -0.76618454310500    5.34819434806332    4.34510435591768
C         0.07155798735187    5.01610064774803    5.34672155680593
C         2.20188492713878    7.59787877676027    7.28870234136210
C         0.89546926534208    7.95402167599271    6.96461731310982
C         0.55968840038398    9.28058405535307    6.77033885558787
C         1.52027087902444   10.27030910578081    6.89573331208482
C         2.82048334006025    9.92605138812806    7.22422259765055
C         3.15841855299515    8.59998984326806    7.42319089803859
C         4.39164393109733    4.23171969331200   10.15720793820295
C         5.55680417600789    3.47243045068187   10.08017697686665
C         6.31280253843523    3.23115559598849   11.21129730777890
C         5.91873133945692    3.74353201505019   12.43651120494478
C         4.76689780636898    4.50681137273077   12.52203137673125
C         4.01122191300003    4.75343338692135   11.39027197843256
C         3.48330635079898    2.06491102766304    8.33518138063195
C         3.22861626811902    1.52417331261214    9.59487478474769
C         3.46844595003431    0.18724753273064    9.84652762539858
C         3.94835446099458   -0.63836736627525    8.84215888376737
C         4.17127800336120   -0.11881248551364    7.57863913186601
C         3.94105999745588    1.22031533047240    7.32624908656850
H         1.17690131100791   -2.46794681568558    6.71433035947047
H         3.56026258713798    6.60482558154323    9.35563743638673
H         0.71797920839117    1.17776840416179    2.09134995905502
H         1.88118325665250    1.43544987421147   -0.05400027655128
H         4.11753727456721    0.45596187531938   -0.38682341146562
H         5.23975391175734   -0.69476649534593    1.48912843390600
H         4.12665776129771   -0.89103471061158    3.65780690359748
H         1.35946388522732   -2.38097501441264    2.52611926588609
H         2.42330479563289   -4.37990368558312    1.56575544457191
H         4.06483544091510   -5.66530936666302    2.88634002300584
H         4.61781734356538   -4.95152985752565    5.18268751330697
H         3.55204261636994   -2.95121828003093    6.14228126031644
H         1.45241514964350   -1.46591837747150    9.02744776855988
H         0.35591186259371   -1.91005950404924   11.18789459407267
H        -2.05153588096938   -1.44289252912727   11.46926949135351
H        -3.35680265873177   -0.56135425213854    9.56934051654675
H        -2.26321766488344   -0.12997597279390    7.41433613791951
H        -2.00605778663972    1.86347774834439    5.07111125599295
H        -3.42535634717639    3.58913439096146    6.12151593603161
H        -2.80956575560984    4.52219763542980    8.31953963759729
H        -0.76901666131150    3.73347039192383    9.46297554994475
H         0.61626569136955    1.96823231187202    8.43802350204236
H         2.66623635501146    7.08645438635577    4.61482612040022
H         1.16064879376306    7.65933340609725    2.76812105094336
H        -1.02329690471249    6.57943265484077    2.60017491747634
H        -1.82900244756822    5.17419582362436    4.42825751640759
H        -0.31332524493900    4.60464188252120    6.27429612686886
H         0.14006147703817    7.18836291131757    6.87613909067154
H        -0.45778115116976    9.54421306897317    6.52044754617871
H         1.25653346184242   11.30624409908687    6.74020202352769
H         3.57413509658854   10.69390877403949    7.32465763679901
H         4.17622024486677    8.33141664923365    7.66701869997103
H         5.87107906585770    3.07997966662142    9.12442785990895
H         7.21537230364462    2.64193318251024   11.13749583110170
H         6.50880988492204    3.55115352176395   13.32055344329618
H         4.45575858676339    4.91122643710413   13.47460667018219
H         3.10674082135051    5.34093208444049   11.46078536991027
H         2.83854818605906    2.15565202618410   10.37948147499827
H         3.27571588908879   -0.21357681860438   10.83132201798996
H         4.14443378316693   -1.68211831763035    9.04496578418804
H         4.53707118800747   -0.75525958385757    6.78553372770316
H         4.12454347431328    1.62354521639076    6.33971427162602
H        -1.00138927181996    3.02836915396495    2.48862363753214
H        -2.00313415017155    4.40356836728065    1.96908481730815
H        -0.15498286454470    2.73690042289498    0.21384481121057
H        -1.86128201122322    3.11216667811720   -0.08713824481420
H        -1.33300740728540    5.47792793463661   -0.40630180248126
H        -0.05910510781927    4.65256387759845   -1.31165284808810
H         0.57794136654971    6.45359767837467    0.64739544196998
H         1.54137250806638    4.98456136295361    0.45076365586386
H         4.86782137612848    1.43100474729083    4.14066601166919
H         5.41785493363228    3.00120404401548    4.78237079139013
H         7.15959216523144    2.62435406488917    3.19003749436458
H         6.09964500851123    1.64847806459681    2.16169123469080
H         6.22025486314310    3.75990556788180    0.96171672372906
H         6.04556836773844    4.67523440598671    2.47335189648960
H         3.75645692592337    4.63075481063246    1.68418277894277
H         3.92888305365293    2.92840174091709    1.15621619158483

