58
CSD_code = TOFWES | q = 0 | S = 0 | Stoichiometry = C29H20ClN2O5Re | MND = 6
Re        3.11140075344202    4.43615797071844    2.26963183650666
Cl        2.34416009327467    4.48005735246039    4.51775569228007
O         4.32942610249833    4.58354315344370   -0.56798850881229
O         2.98638635358502    1.34633165480414    2.34702425923717
O         8.30170845640637    0.14897050329748    4.05237849274041
O        -0.16723650212214   10.44597325480020    0.85286907844146
O         0.18558634576827    4.67726652413406    1.29429843076010
C         3.85679619533270    4.50966132609097    0.47671764283871
N         3.37409740841315    6.55361393334612    2.59558981224474
C         3.02330049935479    2.48654291039907    2.27139666820573
N         5.05107126199395    4.55744994551717    3.19905072860574
C         5.91167528346071    3.47402437541006    3.42845090574095
C         5.48247786242095    2.39721344817685    4.20510181336673
H         4.50725798741725    2.43372310068656    4.66750828041556
C         6.30984941596662    1.31716557540046    4.40066873354816
H         5.99761133609653    0.48399860018653    5.00922453202427
C         7.57365525818506    1.26787116349397    3.80432961517868
C         7.99448422072417    2.33634976693480    3.01824898216077
H         8.95785748392012    2.32793497911454    2.53357168050256
C         7.17215853635765    3.43509088579482    2.84434979896001
H         7.49837457582764    4.25829758788060    2.22420907222785
C         9.56792691161746    0.01723555025619    3.45278766079771
H         9.49864240467971    0.03289992635330    2.36051930059233
H         9.94624003657569   -0.95139176596892    3.77510253659751
H        10.25533893271104    0.80174842638297    3.78601944751535
C         5.36311624282965    5.74619505890670    3.59211425332851
C         6.44754548079482    6.29978786135694    4.39338621452440
C         7.55054342901080    5.79137432138289    5.03739157802279
H         7.80502164937319    4.74365784820960    4.99101007691463
C         8.35769814527005    6.67028147812282    5.78156975933304
H         9.22457482890262    6.26291842253935    6.28111045341562
C         8.08432786024269    8.01102871591099    5.90039822609765
H         8.73035917989535    8.64945468450538    6.48498781325577
C         6.94656092652429    8.56452582601566    5.27216076030524
C         6.49980126420246    9.90339325315671    5.33019897691035
H         7.07277488214409   10.63007523464146    5.88724256491076
C         5.33928168192737   10.27373906791616    4.69591628377801
H         5.00640522878969   11.29924667930366    4.76204762085173
C         4.55136324435957    9.37076748711258    3.95989929825711
H         3.64146575314971    9.71622457451903    3.49383374326491
C         4.96782279391786    8.06415330617070    3.86198532829594
C         6.15988781063627    7.68113945534092    4.52653399194799
C         4.44160412755545    6.84465922844227    3.26042447801530
C         2.47644954746042    7.55308749701969    2.19618028071684
C         1.15193347466387    7.50023499791568    2.61622541494433
H         0.84397577523720    6.71852364304844    3.29508713648645
C         0.24363934527424    8.45413385568424    2.20097696514827
H        -0.77193205414441    8.39158475683430    2.55679808235363
C         0.64212251961601    9.46776291946350    1.33340712437756
C        -1.53198362884432   10.42372166790733    1.20000253879972
H        -2.01388165097873    9.49828401541726    0.87047176990757
H        -1.98074120720894   11.26886405423560    0.68069831247852
H        -1.67460582194825   10.54564128943681    2.27851471214474
C         1.97164020647731    9.51269976272757    0.90444804430353
H         2.26532566424221   10.29715744248611    0.22527860705720
C         2.88142143046854    8.57522284487792    1.33705865788617
H         3.90411949481050    8.60649851099826    0.98908422047060
C         1.27641516145230    4.56483008927659    1.62044021880487

