51
CSD_code = TOFXUK | q = 0 | S = 0 | Stoichiometry = C20H22N8Pd | MND = 4
Pd        1.81653177829035   10.18082760495354   10.66334559514805
N         1.66150159019226    8.43798081840202    9.64772719589028
N         3.00722377460203    9.08305660169926   11.78485894737982
N         3.75586069580507    9.21925534887550   12.86831591760375
N         3.96073168470408    7.11656016063130   12.14203042837284
C         0.93020746194603    8.21247465612940    8.55790283922542
H         0.35895948308179    9.05626336191543    8.17543474955702
C         0.89869996216211    6.97046169853294    7.94468638828020
H         0.29514050008445    6.82407419572324    7.06390731580639
C         1.65073088364329    5.92961989402617    8.47837721402128
H         1.64045760288992    4.95370220623089    8.01703158852756
C         2.41046686079613    6.16056461987593    9.60758004618006
H         3.01439359570819    5.39593861318798   10.06790081042424
C         2.39721220215246    7.43328418888330   10.17668684807607
C         3.13516851499965    7.80901978142789   11.35208570492811
C         4.32011501864604    8.02346452316144   13.06335964929666
C         5.24294884626780    7.71409139609661   14.19243350126254
H         6.16078527120118    7.29631440378163   13.76154486994077
C         5.57808853597791    8.97428598974986   14.98304458437145
H         4.67215930966805    9.39857779806651   15.40882942815044
H         6.03263853327344    9.71989402485557   14.33563750191698
H         6.26942301238756    8.73913313575877   15.78939732937859
C         4.60690561101990    6.64839350218763   15.08875749848169
H         4.35757653260537    5.76960687432652   14.49968485808269
H         3.69548135416563    7.03340609333705   15.54197394202325
H         5.29572351239423    6.36141008633537   15.88038685664652
N         1.97252344154971   11.92404308568593   11.67820777714366
N         0.62671494400137   11.27893992853121    9.54115510836497
N        -0.12175716719383   11.14278840453055    8.45758106164590
N        -0.32673294092293   13.24545264559003    9.18392823995453
C         2.70383541474012   12.14955010694620   12.76801988126023
H         3.27504054797033   11.30574445690805   13.15051927227370
C         2.73531211436011   13.39155006629764   13.38126742216245
H         3.33886266357898   13.53793168442101   14.26205712429899
C         1.98326792115656   14.43238912847009   12.84759075548883
H         1.99353268584774   15.40830251890154   13.30894559711302
C         1.22351666722192   14.20144484686347   11.71839892718623
H         0.61957424792853   14.96606817714332   11.25809424138196
C         1.23677355578592   12.92872934826054   11.14928434536263
C         0.49881730613931   12.55299429095665    9.97388658069754
C        -0.68608639019495   12.33855257335692    8.26258354522530
C        -1.60896168467978   12.64790891661028    7.13353730081700
H        -2.52679436429972   13.06568179677613    7.56443937877629
C        -1.94411077064659   11.38771110554523    6.34293526196145
H        -1.03819114105612   10.96342700180949    5.91712609979853
H        -2.39863627728165   10.64210107434308    6.99035597199734
H        -2.63547080469858   11.62285642527313    5.53660256330051
C        -0.97292381081946   13.71360445281115    6.23721021351276
H        -0.72357993675145   14.59238960235859    6.82627924863835
H        -0.06150854744568   13.32858380354129    5.78398204795771
H        -1.66174980295497   14.00059297991707    5.44559042470762

