51
CSD_code = TOGCIB | q = 0 | S = 0 | Stoichiometry = C26H16Cl4N2NiS2 | MND = 4
Ni        0.32294422583951   -2.99990438222409   -6.71447748521911
Cl        2.74827998498041   -3.47668102468181   -7.47933902180501
Cl        1.75388530321474   -8.18720430470672   -4.98062862333730
Cl       -0.81579539078838   -8.53519924043358   -7.06005917775098
Cl       -2.07089655186172   -3.40617235714317   -5.82310000625738
S         0.60901199903478   -1.23398520058495   -5.42765784548433
S        -0.05196858935735   -1.65042208199562   -8.41723467269688
N         1.02582674438844   -4.09070600244831   -5.14053029081518
N        -0.29884040005795   -4.50265230551241   -7.94518364665877
C         0.39795440451996   -2.12634963949388   -3.96387182188422
C         0.60476022741540   -3.52257086836704   -3.94258929068280
C         0.38477160151032   -4.22921195200279   -2.75591017444324
C         0.00423958010990   -3.56451781259424   -1.61176404050726
C        -0.14263678869418   -2.17834937435373   -1.62076357500708
C         0.04759366632212   -1.46709428355691   -2.78181272832014
C         1.64834684578957   -5.21625321253023   -5.15316057415634
C         2.17294982798407   -5.87060019327293   -6.33289977240811
C         2.65839866930328   -5.19149403440452   -7.46471461319767
C         3.12450344580103   -5.87734895981688   -8.57480303716481
C         3.13020308145806   -7.26050779786943   -8.58239982935143
C         2.70911220337027   -7.96361267849354   -7.46571319253346
C         2.25438875226348   -7.27342680039680   -6.35862603857302
C        -0.86618295830200   -5.61667486440297   -7.64296034027750
C        -1.36081082068152   -5.97747789684218   -6.33127122038318
C        -1.36746926289003   -7.33051631399481   -5.95163715918515
C        -1.78675211361315   -7.74118152189558   -4.70082868746308
C        -2.24554978800198   -6.80137853670121   -3.79263487197010
C        -2.31397113596482   -5.46669355058560   -4.14928705783681
C        -1.88432486628125   -5.06060003505338   -5.40239329363855
C         0.23356009846012   -2.88031814463792   -9.59625049979878
C         0.10570262685866   -4.24294517541246   -9.25086689009535
C         0.38470688150558   -5.22196216052088  -10.20950533477217
C         0.74918066780617   -4.85940242827633  -11.48692986254418
C         0.81897955807316   -3.51326769925918  -11.84166958476114
C         0.56762768098372   -2.53474190014116  -10.90900650476863
H         0.46443532111118   -5.30643470071063   -2.74232008298282
H        -0.18683007096319   -4.12122852616919   -0.70696292089010
H        -0.42959474518973   -1.66411979212594   -0.71577406408047
H        -0.08844693027926   -0.39716197317763   -2.81058257812330
H         1.80478719733585   -5.76340561008242   -4.22434541202614
H         3.47933761400035   -5.31977626294498   -9.42656410096136
H         3.47866698231366   -7.79343130860893   -9.45266662965232
H         2.73176041253228   -9.04161277477553   -7.45069593025829
H        -0.99033916487866   -6.38800015043872   -8.40204933315126
H        -1.75237058141861   -8.78773425277537   -4.44313499997712
H        -2.56621470956185   -7.11440970220025   -2.81184872645809
H        -2.69964043246721   -4.73129800779180   -3.46169946454760
H         0.36601219823231   -6.26764949181856   -9.93900357652807
H         0.98842689402423   -5.62172392950553  -12.21267700013898
H         1.09495523387319   -3.23823563778244  -12.84863533519391
H         0.64382537084056   -1.48865314448016  -11.16205907928554

