48
CSD_code = TOGHEE | q = 0 | S = 0 | Stoichiometry = C18H24ClN2O2Rh | MND = 6
Rh        7.80392168896426    2.55079931914621   13.22430168484030
Cl        6.97526609389095    1.84340842571910   15.21591680282057
O         9.20080486950551    6.17094961249866   16.77830761908598
O        11.50913432137026    3.58340219661384   16.81371586689824
N         8.69892503514127    4.78721933973298   15.04478657879684
N        10.10040325302312    3.21488886763347   15.06656005381389
C         9.02238480475995    3.65573241180062   14.38628150153462
C         9.53215051382687    5.03610331155275   16.11755166577491
C        10.42881553025975    4.03109248887902   16.13063700005398
C         7.69890593668988    5.83060077432744   14.92677998777570
C         7.90279789512797    6.52830933245578   16.29914911267260
H         7.86213921795826    7.61598255064212   16.23059295377004
H         7.15309407626585    6.18176387463671   17.02053786313360
C        11.02245812419565    2.09950038422389   14.97821203815734
C        11.73005528956462    2.24904536596012   16.35331228247214
H        11.30384307760443    1.54971108049835   17.08235296542487
H        12.80774064281673    2.09304975415721   16.29136136944465
C         6.30638620065952    5.24271660096482   14.74732288726894
H         6.28860982993648    4.64232131742035   13.82966924187578
H         5.56401321468764    6.03302561010723   14.67693337347818
H         6.05989176770163    4.58409136063846   15.57686193543939
C         8.06519724468098    6.75965310786576   13.76715486428876
H         9.05557481669615    7.18409671680768   13.91821058115452
H         7.34237634421745    7.56754458143994   13.69192505750193
H         8.06456308890877    6.19729221505448   12.83715979686802
C        10.27968171264494    0.78007251229400   14.82248373406866
H         9.58967136573624    0.63038360753690   15.64970764154664
H        10.98026224960284   -0.04943878350670   14.77839560293905
H         9.68941863234573    0.80915801089040   13.89866413948389
C        11.99449935093132    2.33216055764724   13.81965813207930
H        11.44136406790203    2.37391985610644   12.88498488623006
H        12.71644421563505    1.52150956025816   13.76708218266908
H        12.52646844591633    3.27197467695846   13.95349989906677
C         7.05475736671138    0.93776629842577   12.03446513575877
H         6.95554227139225   -0.01570030707496   12.53769814676227
C         6.13467537778119    1.96546909429584   12.02012696151190
H         5.16907425566137    1.97912232827334   12.50953698656675
C         6.50095721319641    2.85529435909349   10.83168092172072
H         5.73728805372441    3.54531424445554   10.48056550187453
C         7.81073113690559    3.46934271359585   11.33099122598194
H         8.04127437441189    4.51997551204909   11.21418395915198
C         8.74357281055683    2.42752799298956   11.34538064618602
H         9.81467352754774    2.53964707100627   11.24199522250190
C         7.99622253319457    1.18559785384139   10.85521269442325
H         8.60256832979471    0.34530442409493   10.52525928036579
C         7.02675549109425    1.80779500193509    9.83905974529639
H         6.25668495639360    1.11331203833910    9.50148381713666
H         7.53215938246102    2.24819077571724    8.97848845233306

