42
CSD_code = TOGJAC | q = 0 | S = 0 | Stoichiometry = C21H16N2O2Pt | MND = 4
Pt        0.82503635481176   10.24286470386085    1.09478239548932
C        -0.01642706848792    7.55845541416419   -0.83082703680555
H        -0.31417222443162    6.70658588319328   -1.42207762801649
C         3.19314253170606   11.92848181229530    0.42296765250495
N         2.27699375017588   11.55888211095735    1.35781941138641
O        -0.69564476939029    8.92219976103962    1.00474451362563
C        -1.11489551180377   11.27006792497415    4.80740141684033
C         2.42083480236280   11.97861000214369    2.62705956892141
C         0.22891778568930   11.01213214892291    2.81872091819597
O         1.69977105247648    9.15951356830940   -0.54487034434457
C        -0.95374062745660   10.79039711318558    3.50548997479595
H        -1.76116744875159   10.24633258134307    3.03712562730629
C         1.10491853811127   12.18442661717022    4.77934881650011
H         1.89907934505526   12.71892446331112    5.27902001675354
C         1.21112486142746    8.16039604268373   -1.12829782122112
C         1.26431853319414   11.72236070277566    3.47158057558969
C        -0.86710792948893    7.96196911287552    0.19494274185611
C        -0.07957422819647   11.96071350387676    5.44591320795946
H        -0.21904710473671   12.31386666317690    6.45714252743138
C         3.58584428242873   12.64983444526702    3.04654628603107
H         3.68490419595410   12.93501485792233    4.08111882260320
C         2.01947029735918    7.55798852854490   -2.25824185514613
H         2.95507753183024    8.10020628047866   -2.37080917695214
H         1.45499020872552    7.61355836803042   -3.18687560720005
H         2.23014053813896    6.51136591096142   -2.05046456498265
C         4.58876871230805   12.90272041941678    2.15554934331445
H         5.50928504621728   13.37385594062320    2.46684809690299
C        -2.14250179924783    7.16893977091315    0.38545355705594
H        -2.69556442842539    7.56293911153186    1.23374932995079
H        -1.90960483069926    6.12122743269364    0.56094244302329
H        -2.75831527593979    7.23673376203686   -0.50878493705803
C         2.93278216643869   11.71777097089909   -0.94451636821059
H         1.97847174346971   11.29758916033349   -1.22610363007055
C         4.40075690463387   12.58040985386135    0.79431232359985
C         3.86034124154299   12.06067516947461   -1.89101045007559
H         3.64891922483381   11.89831872574367   -2.93721314786116
C        -2.33079863983034   11.04821325146834    5.49040098890969
N        -3.31851142121275   10.86686244853713    6.04529984694321
C         5.08373301574356   12.63503067056520   -1.51815139356293
H         5.80906717068107   12.88492134881512   -2.27773801993828
C         5.34208975364148   12.90274075697527   -0.20151910688688
H         6.26409371914750   13.38030268465652    0.09622068485143

