44
CSD_code = TOGJOQ | q = 0 | S = 0 | Stoichiometry = C21H19NO2Pt | MND = 4
N         8.41945808544730    7.96556324979133    2.46850805150442
Pt        8.11676657800891    7.09401920983356    0.71978376113286
C         6.05609722971945    4.83417353407569   -0.81036844292366
H         5.42703354271804    4.12527880320264   -1.32637256552696
O         7.96757466692414    6.23326594692929   -1.10377267720737
C         9.70778720950024    8.24979807362272    2.72929854650007
O         6.39499456267789    5.89634328337398    1.27411538498983
C         5.77741351111249    5.09118875119411    0.53727855576695
C         7.10787958545976    5.40286483420655   -1.52350634426480
C         7.48167196839814    8.15582447293682    3.43441836029018
C        10.61283722111682    7.92173262883064   -0.82400318968678
H        10.12337101619928    7.64114785861091   -1.74597386569227
C        10.56640052978580    8.23890728901938    1.55956888064645
C         4.62014659569077    4.33314467695338    1.15651243981369
H         4.52511023687744    4.60135365488800    2.20592934248608
H         3.69638369622370    4.57735480415567    0.63570152231452
H         4.78688819405692    3.26166099827464    1.07024262381241
C         6.11255106340873    8.10231509397009    3.11083384941210
H         5.83642611452456    7.94087954847365    2.07908047907897
C         7.26370051700203    4.97895085962096   -2.97058426436265
H         8.13212456131506    5.46889455520846   -3.40262003018269
H         7.38850371009013    3.90031427659725   -3.03377084198930
H         6.37595696619706    5.25423515235728   -3.53607427631404
C        11.90400933427148    8.63136986290477    1.53134569867703
H        12.42034481783124    8.90568960990903    2.43986720553705
C        12.57936437322247    8.67353281892998    0.32906631629570
H        13.61592735843297    8.97987378285839    0.30868236966791
C         6.85038753301839    8.61895264568141    5.74581121611332
H         7.14765305202316    8.83803373282906    6.76117084617817
C        11.94322969186159    8.32941392767268   -0.86056854343318
C         5.15976696515682    8.27352054839438    4.07872798056052
H         4.11260783167282    8.23474831784594    3.81807159702177
C         5.52816333540135    8.51193694383808    5.40994377941975
H         4.76305227508475    8.63120109297724    6.16246886478614
C        12.68159221205154    8.37080644850388   -2.16363011209481
H        13.60579189436107    8.93665163180028   -2.07347560649854
H        12.92936853282513    7.35830089717013   -2.48310498607306
H        12.06473855197900    8.82146199649039   -2.93847612700352
C        10.13058775898913    8.57868236390759    4.03331509252032
H        11.17804189673342    8.75704365526883    4.21438726509535
C         9.22636240802747    8.63859993034914    5.05317038751310
H         9.53658513877759    8.84699652630899    6.06664553541562
C         7.85347893065705    8.46680326419797    4.77055118791049
C         9.90406874517276    7.87246844600019    0.36470473279755

