114
CSD_code = TOGKEH | q = 0 | S = 0 | Stoichiometry = C56H53FeP3Se | MND = 8
Fe        1.12978378381943    0.58600995400749   18.54399649881987
Se       -0.15351713153308   -4.89909629996133   26.86952779421849
P         2.32377906576624    2.26894666659790   19.12127186034901
P         2.93473368131397   -0.51705988019258   18.33400518848926
P         1.27634883380948   -3.37510823196857   26.69956349806994
C         0.04255306813305   -0.18306880870364   16.87589470238695
C        -0.04428601612463    1.22966660671236   16.89319656596987
C        -0.66672951072711    1.61772355301409   18.12900466588980
C        -0.95971103999163    0.44349315337644   18.86386197533270
C        -0.46890819135765   -0.67094940994498   18.11961383750226
C         0.41432987711101   -1.02141765460498   15.69545841540921
H        -0.32959499376293   -0.88828531845592   14.90783750153643
H         0.43392953154336   -2.07326554809887   15.96635954692089
H         1.38649530186917   -0.74824658463481   15.28864022788511
C         0.18951739132781    2.14851648792630   15.73524271154608
H         0.69383190629022    1.62919055853674   14.92421098405571
H         0.79044215324597    3.01026506048753   16.02435926183873
H        -0.76522419468986    2.51996119044652   15.35811877507063
C        -1.12987989381215    3.00176410198074   18.45091679497940
H        -2.18308547270296    3.11165366645038   18.18421750048919
H        -0.55838472389297    3.73746836988964   17.89065512244154
H        -1.02349672633951    3.21795650576400   19.51205539038039
C        -1.75671456046917    0.34494756582935   20.12388948416159
H        -1.99001466601710    1.33099959181547   20.51720531789260
H        -1.21229832931737   -0.21638859520744   20.88154791779538
H        -2.69370140821211   -0.17675429941956   19.92519631071269
C        -0.65258075139454   -2.09813936181943   18.51698093048761
H        -0.58012318640199   -2.18833517515458   19.59777890102641
H         0.11550001061356   -2.72936314727430   18.07604232346893
H        -1.63098343630923   -2.46507757779580   18.20225103433404
C         2.43145241361044    3.83270397187977   18.17348711229350
C         3.12961132326319    3.89921423034830   16.97041179707325
H         3.69147220365982    3.04514637471953   16.62198708106664
C         3.11538655670534    5.05332556907340   16.20826226530427
H         3.67086336148687    5.09095649674201   15.28211562030185
C         2.38750698024039    6.15530088501773   16.62508871798782
H         2.37491966056400    7.05525616448755   16.02836122241198
C         1.67166902572175    6.09391878345067   17.80918926727688
H         1.09562853862303    6.94689794304133   18.13786433620855
C         1.68814719322623    4.94166648251793   18.57340987486159
H         1.12760104718439    4.90269300263115   19.49656033775194
C         2.07527795806840    2.96738325393955   20.79425211083344
C         0.97062133400627    2.54977774865313   21.52368344357063
H         0.31480918107342    1.81511071051507   21.08371367679216
C         0.74429080984949    3.04316053624800   22.79664999423514
H        -0.11324368392812    2.70631238625595   23.36142269432013
C         1.61968849510806    3.96453086962797   23.34647485932095
H         1.44961271935905    4.34796235143159   24.34216658842998
C         2.71395159286058    4.40104443360306   22.61533438335703
H         3.39020645415636    5.12957998785369   23.03955832622145
C         2.94088329031340    3.90971456245870   21.34326376190312
H         3.78315069947276    4.27160066955381   20.76798049984156
C         4.12289434535661    1.76989302077576   19.20230525137092
H         4.58335340041777    2.00852858858144   18.23932384904878
H         4.64796448512490    2.32496693438878   19.98457394356911
C         4.19935042635044    0.26721534912656   19.44065377293791
H         3.92177269781596    0.04299567662861   20.47282784842180
H         5.20018400653308   -0.12728097899985   19.23518677469944
C         3.05579205333021   -2.29121205887535   18.70435176715442
C         3.31416253307636   -2.78503780202594   19.97787065922418
H         3.54182196886386   -2.10657261435731   20.78459455477816
C         3.27158662830798   -4.14702937912632   20.21837533833937
H         3.47146752821127   -4.52108354216809   21.21228359021301
C         2.96700228346945   -5.02913800977766   19.19530401098224
H         2.92905597881168   -6.09098865975277   19.38873920477186
C         2.71087579947418   -4.54586003400265   17.92195935845280
H         2.47586884413796   -5.23093510857317   17.11981222609197
C         2.75033321111604   -3.18587443436397   17.68053581043251
H         2.55659923083758   -2.80207954916154   16.68767179433059
C         3.89045665986319   -0.43079876866602   16.77107710333815
C         5.00796102185017   -1.21425324305653   16.50496144025260
H         5.32137919214429   -1.96420773739101   17.21887966845167
C         5.70866858081287   -1.03530196472520   15.32600984621531
H         6.57620395312206   -1.64511024394427   15.11835890906254
C         5.30431860817070   -0.07594595339066   14.41004551523996
H         5.85619170795128    0.05728969106745   13.49108682234542
C         4.19447375527910    0.71001994923821   14.67275559871480
H         3.87838142312239    1.45912592683300   13.96027565604906
C         3.49187769908212    0.52888388423870   15.85071055420395
H         2.62089742284078    1.12483584189913   16.08905837445655
C         1.40355818451798   -0.14100709008899   20.25017703468536
C         1.36613939038810   -0.70876189613524   21.32433337669441
C         1.33504031145906   -1.31921022421691   22.59241780866624
C         0.98289440253706   -2.66857341471149   22.72297345279013
H         0.73445265237542   -3.23627344734965   21.83715843253470
C         0.96019109469055   -3.26070301979552   23.96484721482752
H         0.67778145306471   -4.29945485230835   24.07836771260069
C         1.28643872901468   -2.52334572605744   25.09961415009615
C         1.63266434177951   -1.17799775221266   24.98168710090545
H         1.87280133239454   -0.60143916892287   25.86626540707780
C         1.65670321406699   -0.58289168040856   23.74053023845192
H         1.91988677707526    0.46124947351759   23.63722648603361
C         2.99479696209612   -3.93850102785206   26.96003549927587
C         4.06476171609695   -3.14249691335275   26.56571238950599
H         3.88210129995602   -2.18703347187222   26.09393903527533
C         5.35800588101726   -3.58221911750921   26.77848961322936
H         6.19128969549464   -2.96588719330006   26.47317012242561
C         5.58644985392903   -4.81027057418588   27.38011974450824
H         6.59915715865228   -5.14851113187752   27.54388597173504
C         4.52007701612158   -5.60514577670642   27.76652071753010
H         4.69756289076570   -6.56354523375732   28.23154210767144
C         3.22379249659417   -5.17125380193384   27.55394460879918
H         2.37923009984106   -5.78332433570204   27.84109219132059
C         1.01116978881633   -2.07367481904056   27.94219867886966
C         1.82282025776700   -1.93965518453773   29.05990740399928
H         2.69496333410861   -2.56970581810537   29.17239709910485
C         1.50934492970097   -0.99549801633350   30.02218089480223
H         2.14065096124828   -0.88718934268648   30.89213155572898
C         0.38779578807561   -0.19641663206714   29.87470056176847
H         0.14636253164864    0.53703213602023   30.62991945635581
C        -0.43176415551950   -0.34249719791779   28.76574766014168
H        -1.31179545927715    0.27427482371868   28.65687450538042
C        -0.12560892878512   -1.28456897794961   27.80312980973433
H        -0.76092897351930   -1.42331293204942   26.93763370542661

