33
CSD_code = TOGMEH | q = 0 | S = 0 | Stoichiometry = C11H16AuCl2NO2 | MND = 4
Au        8.29384743258877    4.78761605610308    1.90485168008739
Cl        9.39332960776275    6.68433968839694    2.32927351605101
Cl       10.23417196403856    3.74489173157912    1.17450351476841
O         4.27451808768698    8.39342642229916    2.33792266713307
O         6.74110139193466    7.85800218477691    1.73413020106030
N         7.18951626538696    2.94550921813540    1.81619956188486
C         6.46367143529763    5.52000135451558    2.33461674468078
C         5.60016716929418    4.51059698648678    2.77045156736694
C         4.29148963386563    4.80392864036588    3.10237772811514
C         3.81631345622916    6.10058016415001    3.00292824584551
C         4.64301473067240    7.10582348713087    2.52697428833329
C         5.98591259683526    6.80889328717618    2.17599439529634
C         6.15636703690560    3.12155569696693    2.85519836935620
C         6.56739731160563    2.81131799336041    0.49757121310677
C         7.98928453188007    1.75176903052520    2.08963012777457
C         2.99315734370042    8.79790095276407    2.75482303503109
C         7.05376004278259    7.85391446787489    0.35933383051589
H         3.63515860282086    4.01825319173053    3.44515804244184
H         2.79402303512055    6.30824316301834    3.27457841070852
H         5.37215198912206    2.36323971615204    2.74157636179789
H         6.63171157703955    2.97702302983726    3.83105159555537
H         5.91825553387583    3.66386907442936    0.30547473777236
H         7.34489284299918    2.77382909549269   -0.26252396020294
H         5.97401634204485    1.89363303800210    0.44575838430702
H         7.36325748203428    0.85624656695429    2.05460112265013
H         8.78691901120883    1.67787534397059    1.35273203334119
H         8.45070774575585    1.83238790586893    3.07177730391453
H         2.94777481804857    9.86802725228118    2.55991649894167
H         2.20543292400462    8.29327276992714    2.18536621669036
H         2.84322637105764    8.61817322364594    3.82380183988559
H         7.52743890882933    6.91540066407857    0.04796575910889
H         6.15430460321272    8.02134747159164   -0.24544821512764
H         7.75340817435826    8.67301113041141    0.21233318180729

