28
CSD_code = TOGMAD | q = 0 | S = 0 | Stoichiometry = C11H12AuCl2NO | MND = 4
Au        1.47695701257553    2.67731303596128    3.19293859562977
Cl        3.31162951161299    2.35302576834102    1.83349949595948
Cl        0.99334440356036    0.51819819390464    3.13231036093991
O         1.00406654185574    6.53352430425811    4.30958610610199
N         1.76002837495757    4.66204253311210    3.39631240451924
C        -0.18539160249049    4.43496286581786    4.69897745503722
C        -0.10817525636920    3.07571960463512    4.36547990518222
C        -1.07456784187954    2.21900349316755    4.84981128069527
C        -2.09616708189573    2.71050111994553    5.65524740951516
C        -2.16290552568118    4.05565858936021    5.98405188969995
C        -1.20649796779656    4.93090582264460    5.50672856460361
C         0.86793473258309    5.23755631993239    4.13526461517861
C         2.17092345172766    6.94181899736647    3.58375775691907
C         2.73546902522759    5.64871206547503    2.93155323004891
C         2.72605439065420    5.71430372003212    1.40787558806570
C         4.12380972697327    5.29343570232021    3.45376973777402
H        -2.96234484213054    4.41852617460062    6.61210297263256
H        -1.23178801599326    5.98365813803906    5.74339561881373
H         2.86860187591371    7.39644043824215    4.29119310475971
H         1.86707751577111    7.68635852915869    2.84389804528127
H         3.04887461627183    4.75594825025943    1.00862996549723
H         3.40968007214303    6.48811098655958    1.06904434512986
H         1.72576745211777    5.93248144636772    1.03807963746506
H         4.43105834977611    4.33999124455253    3.03146496308270
H         4.83467151635196    6.05865460106798    3.15393191783713
H         4.11890802937272    5.21333059832902    4.53933325292222
H        -1.03545511149679    1.16947102205823    4.60291207566349
H        -2.84576335371299    2.02864643449100    6.02834970504370

