51
CSD_code = TOGNEL | q = 0 | S = 0 | Stoichiometry = C20H22N8Pd | MND = 4
Pd        2.71659129705239    0.00050826631983    0.00054162567668
N         4.28646562219536    0.54504781838756    1.06355364982976
N         4.96662092083495    0.13026839352918    2.12185822203130
N         5.93711434112645    1.99263786421188    1.35912792354535
N         3.21814919074105    1.66150234776912   -1.03898581017944
C         2.59658704937101    2.15010597222364   -2.11045264716802
H         1.72881617102709    1.59568347534351   -2.46320238042315
C         3.03113445265241    3.30373811021097   -2.74292605469578
H         2.50365931463928    3.67126074482381   -3.60809227642072
C         4.14597149241891    3.97162609287591   -2.24845043270208
H         4.50114916736232    4.87233860359501   -2.72595813036266
C         4.79270555368957    3.46720636907322   -1.13806350266912
H         5.66128437305643    3.93774236342958   -0.70751805159110
C         4.30400232615841    2.30205851464524   -0.54858190206419
C         4.87929680839442    1.67142164049297    0.60865632151742
C         5.95514308542415    1.01707927869500    2.27873417149400
C         6.94613651326963    0.94500409835086    3.38129264598712
H         7.93872084688910    1.15309999331938    2.97736125087531
H         6.93250699282924   -0.06234517472534    3.80015067971697
C         6.61796611291618    1.97187496625611    4.47011285031965
H         6.59659907358625    2.96501605213455    4.01762663665956
H         5.62255414929243    1.76309789128469    4.86873272018935
C         7.64026174722463    1.93861010050803    5.59791718244689
H         7.39204343055172    2.67439969522834    6.35950554385890
H         8.63487046855483    2.16048992459057    5.21727070976655
H         7.66342499973073    0.95580676433484    6.06420442095511
N         1.14771684143558   -0.54496224560477   -1.06349883503902
N         0.46781165301449   -0.13043211755355   -2.12206117982138
N        -0.50284101108033   -1.99265091537244   -1.35915418830399
N         2.21609597925115   -1.66147974952946    1.03894893927733
C         2.83763373539047   -2.15002220975414    2.11045290618730
H         3.70531989533640   -1.59550552951148    2.46326374733775
C         2.40291713437110   -3.30347802768372    2.74312886452100
H         2.93023457234599   -3.67081690075503    3.60846873891684
C         1.28801071751216   -3.97131745331188    2.24874289601206
H         0.93269627953110   -4.87188644638434    2.72641915089344
C         0.64132270559947   -3.46697670671055    1.13829234155384
H        -0.22732097329098   -3.93746691997439    0.70782579493610
C         1.13012757531647   -2.30193594169486    0.54868261736642
C         0.55489187727456   -1.67134706900576   -0.60860509522042
C        -0.52073045498419   -1.01723017605388   -2.27890516599055
C        -1.51167491319766   -0.94524589395099   -3.38150605313551
H        -2.50426344619634   -1.15335369156727   -2.97758272868614
H        -1.49806413000569    0.06208684103068   -3.80040093057585
C        -1.18337965997439   -1.97213881412062   -4.47026820155081
H        -1.16201489720843   -2.96527914030638   -4.01778015652898
H        -0.18794497392959   -1.76332873093565   -4.86880350463852
C        -2.20554541150992   -1.93890764034563   -5.59818753751780
H        -1.95723277244272   -2.67470822418563   -6.35973498138094
H        -3.20020024217691   -2.16078430074661   -5.21766389892403
H        -2.22864158137066   -0.95611216288068   -6.06448890628164

