79
CSD_code = TOGNIM | q = 1 | S = 0 | Stoichiometry = C36H19ClF20IrP2(1+) | MND = 8
Ir        0.60542145473316    4.51739831457348    6.11317945196288
Cl       -0.45180453562586    4.06433979127178    8.22665889410579
P         1.65023800002745    2.48272579018229    6.64448101908235
P        -1.24685543053722    3.05633343964335    5.93941979694818
C        -0.97846201379189    1.39994232787472    6.72886193494755
C         0.43900556160904    1.23636408634605    7.28291407199887
C         2.24275420749356    6.06804526856341    5.97047233195490
C         1.90519179292976    5.61191546591525    4.63406585266578
C         0.55742838203189    5.98771122818559    4.36387893829809
C         0.01884849651713    6.57464581769611    5.56323921538055
C         1.08969403935552    6.68642602501343    6.52262871663416
C         3.62997813827052    6.19097670527841    6.50006221007756
C         2.88933891999311    5.13750698080854    3.62115367618931
C        -0.08687009453660    5.97926456045451    3.02380662380100
C        -1.27757093820236    7.30426630352831    5.67865925513017
C         1.01433697845080    7.41307325065888    7.81492529222373
C         2.89831725627475    2.30950123735130    7.97828360862791
C         3.57523437124797    1.11089278108234    8.18525095284846
C         4.51464008592804    0.96064849489225    9.19779500651802
C         4.79011686185809    2.03734577797240   10.04385175178226
C         4.11620761172797    3.24426204098901    9.86273938481327
C         3.18194576982729    3.36102633607897    8.83807862918374
F         3.30658971766268    0.07632648659161    7.37908891693451
F         5.14254734265154   -0.19507470402897    9.35978741293505
F         5.68263092032474    1.91100017922801   11.00921123934282
F         4.36456637626471    4.27925716581984   10.65503471037588
F         2.54288671802997    4.51785246484666    8.67155223868960
C         2.55735717440994    1.66267856304138    5.27519161832594
C         1.98061105453419    0.76887650161075    4.38304459753268
C         2.67663997830706    0.24660400728473    3.29887025423137
C         3.99989193157240    0.62764615312603    3.07896056114046
C         4.59870879270147    1.54358940968481    3.94549626831545
C         3.86729605967537    2.04759952934866    5.01202775227530
F         0.70212803912297    0.40967765063584    4.55623976661913
F         2.07303736432858   -0.59928971356598    2.47418596378162
F         4.67419866194506    0.14269074617732    2.05208311854499
F         5.84697771223032    1.94477528697722    3.74316673023640
F         4.43111223493091    2.95398568017181    5.82569627603356
C        -1.73426900923764    2.41417890330776    4.25930851633513
C        -0.82948699473280    2.49001666808568    3.21352812461213
C        -1.11527183978493    2.02899021087639    1.93553602657896
C        -2.36144833665747    1.46004656161587    1.67923387565015
C        -3.28572459566604    1.34393637261526    2.71900366569809
C        -2.95757522163273    1.81157779183442    3.98764009303161
F         0.39210089890971    3.00238920238759    3.45614058370458
F        -0.20056096475274    2.13243875607056    0.97558350896034
F        -2.66013670830110    1.02286426044765    0.46881654661272
F        -4.46685601320318    0.78443236972891    2.50073199001254
F        -3.83712705624656    1.65810950007730    4.98388365309129
C        -2.88564488059950    3.68749983555186    6.46330121224923
C        -3.48028679257150    4.59965124253015    5.59838745195894
C        -4.68488958314234    5.23053819742456    5.86623157480260
C        -5.34302169174271    4.94514112493996    7.06242089137446
C        -4.77138034662877    4.03896379830963    7.95402797064048
C        -3.55504266127346    3.42700000334074    7.65529607186949
F        -2.83596893086715    4.87072586884754    4.44951542689925
F        -5.19255451432393    6.10004944355814    4.99925508756914
F        -6.49151577199262    5.53315133818620    7.34897487809358
F        -5.38190758785172    3.75902206275036    9.09646813254017
F        -3.05412405598675    2.57555570201776    8.54377364916739
H        -1.17723968011477    0.64785893036591    5.96341169644333
H        -1.70020617327446    1.25414037148658    7.53050266279979
H         0.42863163528746    1.39455180103534    8.36560975141720
H         0.81337995958507    0.22785731604851    7.09367899659128
H         4.13923533128785    6.98072548003514    5.94530296342710
H         3.62624140600912    6.46504910465243    7.54985905819119
H         4.20316111906669    5.27707622293900    6.37526990602947
H         3.13097774314047    5.96426113463980    2.95156802674092
H         3.81029562409672    4.80895035096584    4.09181337633721
H         2.48571075010915    4.32874773740727    3.01708110260609
H        -0.02020531769187    6.98643341765105    2.60837101473285
H         0.42390245747847    5.30370532898905    2.34497627598256
H        -1.13788722359120    5.71227237796481    3.07199181951932
H        -1.07840615881571    8.37612435018880    5.71134219370734
H        -1.92148489509619    7.10622810820712    4.82831328075325
H        -1.80290839465933    7.04057725575178    6.59553427183723
H         1.41858031306772    8.41781270780814    7.68205727709366
H        -0.01187458143655    7.50098496058085    8.15939550027137
H         1.59937374962524    6.91435639743315    8.58301785358992

