42
CSD_code = TOGQIS | q = 0 | S = 0 | Stoichiometry = C17H18Cl2N2O2Pt | MND = 4
Pt        1.40003484381039    0.43909518798297   13.03273991791299
Cl       -0.27140483648972   -0.30596371830560   14.32537047799753
Cl       -0.04650424717642    1.94410517072077   12.16846627859635
O         2.54321151406935    3.42435921522276   12.53228044753739
O         1.89477856943873    4.01343959150184   10.45415336345916
N         2.75741967424998   -0.82717202598756   13.79325780405250
N         2.95428640275394    0.97476025480055   11.95291978580947
C         2.57545362918993   -1.77124052379143   14.71212078950832
C         3.60850441692251   -2.57287579704989   15.16008256922817
C         4.88688617438231   -2.39210172879139   14.63785136571458
C         5.08200552040785   -1.41510278670285   13.68400808871331
C         3.99476466018656   -0.63978158336567   13.27205149391498
C         4.05300071129042    0.36206447381427   12.25236739985945
C         2.91037475687866    1.85178843318704   10.82343308088083
C         2.34478948454360    3.22292998918191   11.23331438309651
C         1.99726827586477    4.62794762693848   13.08632053210826
C         2.90278928301479    5.82348478168534   12.83546917233565
C         2.05171033320485    1.21531980738858    9.69331261814685
C         2.15362786681207   -0.28144302160105    9.79475626620640
C         1.14082653925636   -1.01178767866530   10.41594909302484
C         1.30309504591258   -2.36847912567487   10.65543575723600
C         2.47369988395490   -3.00716597714155   10.28086603829317
C         3.47032035470862   -2.29403585242246    9.63677582262128
C         3.31222474685427   -0.93915027870819    9.40052696304677
H         1.56642248623063   -1.87342210008628   15.09131789951921
H         3.41710631565633   -3.32600333141457   15.90672077002788
H         5.70904997975211   -3.00494507454043   14.97333365777279
H         6.05307952729926   -1.23823871827256   13.24946956803710
H         4.98200347666739    0.55450886392507   11.72276093653894
H         3.93124351206608    2.02989062809398   10.44894596322719
H         1.89598165270867    4.42060215673813   14.15302678104570
H         1.01010998327126    4.79182068068901   12.64456741846884
H         3.89770181772146    5.63668680716237   13.23377021615335
H         2.48571545249852    6.69974250390904   13.32296344174839
H         2.97659349988229    6.01726879389313   11.76842695904441
H         1.01829385046813    1.53538122024973    9.82206918460755
H         2.41720120271377    1.58294729367110    8.73480457219548
H         0.19919119193588   -0.53329572118713   10.65538871666084
H         0.51116623979083   -2.92456191479446   11.13380471418735
H         2.60423876610359   -4.06103569330788   10.47770582699150
H         4.37608135143822   -2.79236271718377    9.32268434794946
H         4.09725608977303   -0.38597811173838    8.90330951651183

