24
CSD_code = TOGWUK | q = 0 | S = 0 | Stoichiometry = C12H4AuCl2F3N2 | MND = 2
Au        1.59505750261831    1.18852033741961    6.83082861381136
Cl       -1.23396106654280    1.24691214329033   11.78108504879428
Cl       -2.74377266448795   -2.30270197918373    7.99901008118056
F         0.74806204790934    2.01552413116862    9.76500990572581
F        -0.56463908660371   -1.07015542197216    6.47680890826199
F        -2.82326174779848   -0.92894443383330   10.60004342993046
C        -0.70567918043806   -0.52113168858447    7.70356855365699
C        -0.05205358967728    1.01418868703682    9.33883602316585
C         0.15972914816570    0.50544327215617    8.06290322673303
C        -1.86536599296206   -0.46833726113407    9.78523018561191
C        -1.03566411015188    0.56155555034589   10.21169981762214
C        -1.71083639847775   -1.02511451462416    8.52147690812273
C         6.49314987242605    3.71244047551295    3.17704395664599
H         7.25761442964486    4.46054546090381    3.33515764475008
C         4.62906535134565    2.43103009232677    3.89651609033624
N         6.49509132090623    3.13156420380632    1.99104860299215
C         4.62095514646329    1.81108297892158    2.64814315460839
H         3.89024046950209    1.05436027302299    2.41164734476918
N         3.70882503211701    2.08371584357213    4.83226608539268
C         5.58370980603432    3.40650592908907    4.17798625624763
H         5.60666357726463    3.89794121010214    5.13737673511215
C         2.92130799270977    1.78483647085085    5.63387096968267
C         5.58573500950790    2.20870520078375    1.73524054646021
H         5.63062713052500    1.76431303902178    0.75060191038574

