87
CSD_code = TOGXIY | q = 0 | S = 0 | Stoichiometry = C46H36I2NiP2 | MND = 4
Ni        2.41586188174541    6.72205044427829    6.48072460817000
I         4.71018831313281    6.26272981209809    5.64914557388493
I         0.54334939101003    5.11563228817753    6.50160673824130
P         3.01363082261565    6.69684842635907    8.49419257311081
P         1.62619386417998    8.77997853803445    5.95050574150859
C         1.83171193287722    7.18650880382185    9.86403289666921
H         2.11107821436110    6.53219145971382   10.69557934544560
H         2.08005999894006    8.21595866989447   10.12810307209496
C         0.36652323986487    7.05223132506812    9.61045359564011
C        -0.22488085714735    5.78112664747645    9.75266546456516
H         0.41077239867381    4.94186053356477    9.99855535884095
C        -1.56589210338905    5.60499155045932    9.58123976619600
H        -2.00704338057592    4.62568286270999    9.68357773112423
C        -2.39388654347761    6.69765040345938    9.25513701852949
C        -3.78436460988118    6.54570504602394    9.07790894016440
H        -4.20916021688362    5.55750614174669    9.17667852039547
C        -4.57534410797114    7.62129398149599    8.78816340677420
H        -5.63984366449904    7.49793946670377    8.65386578028131
C        -4.00878901729042    8.89953168583886    8.66943194579592
H        -4.64599906042549    9.74436209489120    8.45153216401281
C        -2.66355924080177    9.07975871215911    8.82970326163195
H        -2.23443455214824   10.06818259490462    8.74446030026239
C        -1.81645968001619    7.98700209029644    9.11735240856014
C        -0.41512601274314    8.14588629659911    9.29505252431555
C         0.17198369489783    9.50784860739262    9.22121272074348
C         0.47506107987505   10.17261502575609   10.44358253719127
C         0.19807690746522    9.59211137413698   11.70085764326102
H        -0.26970369740467    8.61898862402717   11.73684039194560
C         0.50251828103816   10.25003370201960   12.85956292603515
H         0.28032022128954    9.79509396639334   13.81366127258286
C         1.09962573400091   11.51884168096719   12.82376597983973
H         1.33430585359135   12.02304337466030   13.74952507923309
C         1.36991550978088   12.11314253044850   11.62367871568631
H         1.81776317144297   13.09593990882615   11.58283887517134
C         1.06027782168884   11.46464473830869   10.41092156273913
C         1.29758584725077   12.07345892137068    9.16139594302136
H         1.73671245665350   13.06028323561888    9.13528985483521
C         0.96174994631933   11.43550694566105    8.00436068089917
H         1.12663029432740   11.92047077618502    7.05336861607992
C         0.39934695448143   10.14177793261611    8.01621821173278
C         0.08562673158791    9.48707789730189    6.70677224556014
H        -0.35840365311031   10.20165260131982    6.00761622869097
H        -0.60411300153085    8.65081303825960    6.85601377006831
C         3.68230583436869    5.11809495254966    9.09977690148457
C         3.64150394844760    3.96858301687332    8.32280411829467
H         3.21508823998450    3.99856867698645    7.32954382600663
C         4.15159981224238    2.77921677596545    8.81242471699343
H         4.11353038733348    1.89105450144844    8.20108366848719
C         4.71266721522012    2.73562864780041   10.07647603590950
H         5.11891830170914    1.81072326705297   10.45694103300478
C         4.76086148362121    3.88261890440131   10.85438976810009
H         5.20600456091624    3.85317513084377   11.83801151473224
C         4.24540315205465    5.07094083663411   10.37493766157534
H         4.29686574026251    5.96668218853332   10.98083537710286
C         4.32817390394063    7.91765665685727    8.81405180475601
C         5.65919809722170    7.54559818554771    8.96771774378286
H         5.94191373112874    6.50463750092000    8.90368380716935
C         6.62390992111006    8.51342304741387    9.17985260622190
H         7.65509609415690    8.21795465768110    9.30059098510796
C         6.27411713074749    9.85380537983740    9.22305489216819
H         7.03280441184732   10.60503099508637    9.38382076705984
C         4.95395498919963   10.23046504955231    9.03949618802598
H         4.67378136577824   11.27353967702298    9.04444345373595
C         3.98531680314464    9.26698655159628    8.82911169806721
H         2.96071764276870    9.57050338389466    8.64981652019938
C         2.57317036195098   10.25403919376782    5.43682854623960
C         3.92714042030335   10.32737832926784    5.73575648967597
H         4.40212769086694    9.52743482089171    6.28685186746722
C         4.67703403547405   11.41210454157629    5.31507356705726
H         5.72986624138274   11.45746770432543    5.55071322555417
C         4.07824102389592   12.42496667582383    4.58771190902789
H         4.65969296626062   13.27350225024408    4.25871044464045
C         2.73161491299346   12.34437784987690    4.26419587931906
H         2.26799437424101   13.12612635475232    3.67974028038090
C         1.98188562244617   11.26165357614394    4.67912044604897
H         0.93747214737183   11.19245723619770    4.40349508175304
C         1.05984203796750    8.26201529545538    4.29366338382964
C         2.03131378516575    8.17197837914421    3.29591448477630
H         3.05412730215649    8.45890479478079    3.50922656304170
C         1.69609399712198    7.71154743384979    2.03780074128087
H         2.45724582877754    7.64172859451281    1.27477637202393
C         0.39263120646076    7.32852512678498    1.76570796425497
H         0.13131700223969    6.96195041993892    0.78419789432867
C        -0.57125857207102    7.40044152797512    2.75758755996247
H        -1.58413266554352    7.08602842732882    2.55358301329193
C        -0.24305388524739    7.85737843824517    4.02134613073350
H        -1.00136576526669    7.87675028764296    4.79148107574577

