66
CSD_code = TOHCAX | q = 1 | S = 0 | Stoichiometry = C26H33ClN5Ru(1+) | MND = 9
C        -0.11980130302451    6.86451050850932    3.69762732330656
H        -0.91738589766227    6.18167192162469    3.90480016453862
C         0.86090342061190    6.80772733800171    2.77133847305549
H         1.07145664232179    6.07252940977978    2.02297349198246
C         1.13868499680760    8.69155263798592    3.95157574791713
C         2.77444232477439    8.20989026953940    2.10729299209543
H         2.44474385098083    8.72875911915995    1.19284247856691
H         3.22066989781969    7.25514597842846    1.80861341596207
C         3.77359083973368    9.04517302933913    2.82734409105633
C         3.56681883587650    9.89737014187087    3.90954189383303
C         5.22148174136882   11.35143602527125    5.09363774765028
C         4.96231681020628   11.10828715164740    6.43268775946053
H         4.45468032252191   10.20421428307503    6.73103166274755
C         5.37732644233145   12.02997984334269    7.38663058179375
C         6.04247675365412   13.17558587679898    6.96858547142320
H         6.36499870428457   13.89622723941034    7.70624085177222
C         6.32247152147864   13.41498866303319    5.62721992094987
C         5.90938896462164   12.48547101592159    4.68308207685104
H         6.11574310877017   12.63596975851944    3.63435968034358
C         7.06765688819362   14.64674282128257    5.22072223755861
H         7.06816333643669   14.76888473248272    4.14107001719448
H         6.62706522680010   15.53129620664773    5.67662046799195
H         8.10091846852277   14.58240430483289    5.55925442102244
C         5.13764898282446   11.77092098727338    8.83972754656388
H         4.37418547331416   11.01050678988109    8.97738769147738
H         6.05699442500048   11.41521547300743    9.30393861296931
H         4.83983299548329   12.68066765670377    9.35646292141022
C         5.78271165724598    8.44780495965676    1.44164984188124
H         5.33909554320551    8.67498270190150    0.47195396840522
H         6.81634733179463    8.78717273930796    1.46058054997179
H         5.75509705754477    7.37018557145424    1.60674015116150
C        -0.77270475936002    8.37999788103089    5.52353918706767
H        -1.20165634751853    7.47737992659925    5.95438211532465
H        -0.17052037707969    8.87672782294452    6.28591095815968
H        -1.58434199373150    9.03469551758807    5.20130977534195
C         1.54671967981311   12.31378058726650    7.68247152379313
H         0.65573290855035   12.69506319754705    8.17825022695681
H         1.76352226605269   11.32685676711266    8.09706981506940
H         2.38815739677542   12.96709005267057    7.89771329396224
C         1.32182369098900   12.19439171367125    6.20989147202243
C         2.26852920920236   12.65271106264159    5.28524055174860
H         3.15619734583913   13.16784574228616    5.63116081101445
C         2.03758486698882   12.51108502197422    3.89635269423848
H         2.75917762564377   12.92846833774466    3.19876557267246
C         0.81947243441135   11.99674155922643    3.39570303530197
C        -0.14920013287032   11.57817321119795    4.34670616573072
H        -1.12841287427210   11.26728307792497    4.00130052662624
C         0.10008512509779   11.65780020921914    5.71974858358598
H        -0.68109760823886   11.40411431693740    6.42778524790358
C         0.50722560318489   12.08342811163225    1.91969407585958
H         1.45889061627716   12.13000940504770    1.37613839117763
C        -0.28186213948288   10.88006002013119    1.40290184325003
H        -0.30915595853837   10.89635183612485    0.31654512866297
H         0.18187253355722    9.95002954906317    1.72837296331627
H        -1.30860357778337   10.90005326826773    1.75889007954526
C        -0.26189097565653   13.38386785975502    1.65677934685251
H        -0.47160409360174   13.48419537601055    0.59532909213211
H        -1.20660240719217   13.38434909468847    2.19604674996247
H         0.31779725129753   14.24651562622867    1.97744317837645
Cl        2.29823757250403    9.07971646171521    6.60000787671830
N         4.81140456160114   10.41373498353691    4.11568124352440
N         1.62939420455533    7.93129189832811    2.94152975614701
N         0.06579701967070    8.01592816911389    4.41142773280083
N         5.07950413566931    9.13051399055933    2.48802568921665
N         5.70462146059535    9.96500728594902    3.26593174163750
Ru        1.81108037313555   10.44596590257733    4.72951930134799

