83
CSD_code = TOHMOS | q = 0 | S = 0 | Stoichiometry = C22H52Cl2NOP2ScSi2 | MND = 6
Sc        1.20472921018755    2.72507928504914    5.21146241918938
Cl        0.49299926324946    4.20339271784530    6.91511605594381
Cl        1.19940599506489    1.47016412668331    3.22127482546161
P        -0.13427394805157    0.89212692696263    6.59476291432856
P         3.15099130824299    4.31828120010378    4.30932239623740
Si        2.69851250836991    1.17037598127485    7.74053608041192
Si        4.32033061696476    1.63941292361845    5.25827513423477
O        -0.43766125705716    3.95840393980384    3.97004365348091
N         2.86961717799430    1.81174382179401    6.15892614488700
C         0.80807863043266    1.01940331156618    8.14398813527815
C         4.33432083744838    3.00739713930690    3.87903789436350
C         3.47010746800748   -0.55728027824818    8.01285244144719
C         3.38888660641424    2.33359074478035    9.09578182923328
C         5.92241328495717    1.84956408261700    6.27898835495663
C         4.45257712487788   -0.02442493242625    4.32420436043784
C        -1.95202579717563    0.96863986338403    7.08234634693409
C         0.13793090269027   -0.88875057656432    6.09595783037889
C         3.13705629695870    5.46826178515090    2.81780997035616
C         3.98185773851495    5.22291373888088    5.72245456728014
C        -2.17220420292360    1.77768020089916    8.35502080197487
C        -2.67668034753975    1.63464249423528    5.91136966258551
C        -0.69009719788178   -1.20372817650096    4.85117352950939
C        -0.10407926192696   -1.91737073680574    7.19615472493882
C         2.48178017446089    4.68992523618678    1.67467672433261
C         4.47505927142672    6.04469042344284    2.36942172471175
C         3.20006007136738    6.50177550614302    6.01929460878951
C         5.47830445365540    5.49711123921374    5.61577248949635
C        -1.29017663000791    3.49505293217394    2.91788806075425
C        -2.63086963760695    4.22642486762070    3.08962390374668
C        -2.28586596979275    5.40560836148491    4.01355518227966
C        -0.75951831519681    5.34426816788624    4.10045987486125
H         0.50785399846736    1.95375287067157    8.61710695719093
H         0.56772901925033    0.20029965085758    8.82161231459210
H         3.96541337576278    2.54946099634521    2.96003493299361
H         5.32595035497745    3.41641524587330    3.68425371211381
H         3.21746400715262   -0.95988134556781    8.98822709085910
H         3.16144856020511   -1.27561847714930    7.26150364363863
H         4.54917354903192   -0.47891044783754    7.96265313217980
H         3.17570949253233    1.95796790612603   10.09154091745001
H         4.46476775225017    2.43133251253223    9.00524147894915
H         2.95533510305048    3.32632130653462    9.01721659116396
H         6.06605783037850    0.97329832580028    6.89899706056704
H         6.79698876899829    1.94536365637996    5.64406516847802
H         5.88492531175377    2.70942318624201    6.93755486784623
H         4.52704539286083   -0.84891540420276    5.02457600341475
H         3.57740485009538   -0.19211928527661    3.70379360675620
H         5.32710900213226   -0.05802086238089    3.68188846990548
H        -2.33299668483192   -0.04970508929178    7.22292768422849
H         1.20071912007019   -0.90850663224135    5.81266955569358
H         2.46902287580827    6.29340985965959    3.10407348024415
H         3.82407185597203    4.52161130906146    6.55791449990758
H        -1.74875473832000    1.27691602267905    9.22237660156759
H        -1.71700763500924    2.76316295366534    8.25849831097409
H        -3.23969135737974    1.91070054271927    8.52908397419060
H        -2.28762552972020    2.64819286762734    5.78668968141425
H        -2.51425765832131    1.08326354002445    4.98478052640023
H        -3.74891402102488    1.69258705131388    6.09766030044378
H        -1.75455788029440   -1.21694213137298    5.08136077094726
H        -0.49671847500311   -0.46404213356533    4.07372443684484
H        -0.41942705429969   -2.18203955346485    4.45686915449960
H        -1.11035282275584   -1.83640565176833    7.60343425465303
H         0.00956159879879   -2.91961428059792    6.78503744999687
H         0.61107766448341   -1.80791631434038    8.00658488395961
H         1.63494400384445    4.10215643640305    2.03664113733613
H         2.13241200550480    5.36638253393062    0.89538362639482
H         3.19445984841080    3.99967185623954    1.22759606152140
H         5.22639693060511    5.26402136300952    2.27841007131166
H         4.35844596871744    6.51349705402101    1.39257720005567
H         4.83531337321516    6.80266971915188    3.05913399060620
H         3.56125442680958    6.95996724826915    6.93839749944900
H         3.31160160704679    7.22566999980119    5.21324230676162
H         2.14184609357170    6.27443619597122    6.15044320407540
H         6.03314807629554    4.59403109589385    5.38060698422259
H         5.69834601856130    6.25074265090818    4.86554563109582
H         5.83793551333797    5.86905897190193    6.57466583064729
H        -0.83304706081652    3.74728435392709    1.95212034702957
H        -1.36208321213523    2.41021539755483    2.99342137103939
H        -3.01049857960983    4.56170715408649    2.12648214284881
H        -3.37670281123914    3.57673007555377    3.54314125718652
H        -2.62782007415469    6.36083595339657    3.62252707812865
H        -2.71544848269057    5.26145237022582    5.00393366765432
H        -0.36834408135739    5.69455230327828    5.05593553478425
H        -0.29915156710005    5.90149875387425    3.27169090093913

