82
CSD_code = TOHMUY | q = 0 | S = 0 | Stoichiometry = C22H54NP2ScSi2 | MND = 5
Sc        8.64412426239684    5.36854728601254    3.82598159704451
P        10.54266123434499    5.80235869870000    5.85266756989630
Si        8.79413049796799    8.37931881285141    5.32090577452429
N         8.64408057980989    7.57042415187352    3.82593506769425
C         9.83388760225606    7.32530262761622    6.57532040568870
C         7.11071459644385    8.59572900426876    6.21761599226543
C         9.60071687968370   10.11168911850943    5.26798046732286
C        12.28828453401854    6.36312247129897    5.47898558479470
C        10.70235814227380    4.72967287576966    7.39357218093281
C        12.20747504225066    7.43854765954735    4.40091306973956
C        13.13214229090875    5.19386512036825    4.97922551036461
C        11.76555123146952    5.16685121467793    8.39392685130169
C        10.85505992387482    3.26309236841367    6.99734497505323
C         7.17958144853328    4.45623701304463    5.34185187967240
C         6.73420192982137    2.99564290824571    5.09167107259363
H         9.15683739830121    7.00426080979969    7.36823201692090
H        10.62847988931342    7.91429692328389    7.03614387248217
H         7.23405107294960    9.09038046506149    7.17648465016551
H         6.43148013490071    9.19869358772781    5.62472497927687
H         6.62917312960872    7.63855929776611    6.39996071161921
H        10.12379856823582   10.36072255549089    6.18624062754251
H        10.30264461399047   10.19791927158516    4.44610100684467
H         8.83622824566905   10.86372501973995    5.11446808812583
H        12.73266199530559    6.78731999338323    6.38762456083257
H         9.71739265890086    4.83824229201129    7.87023629969388
H        13.20650323041281    7.72302273675087    4.07129219377386
H        11.64682647873763    7.06358457785047    3.54263684234265
H        11.70077707318350    8.32565180295084    4.76922075069518
H        13.30584829854142    4.45988073842345    5.76230642770654
H        12.62878463220126    4.70274033737129    4.14722972002936
H        14.10249738795409    5.54955870634569    4.63387410506697
H        11.66541279683368    4.59161215921152    9.31365544751202
H        12.76686487829742    5.00167483969427    8.00415709285836
H        11.65509126529646    6.22061797031675    8.64185658556056
H        10.10361596695821    3.00225070066945    6.25002200143959
H        11.83834639197197    3.06492692129923    6.57857187570684
H        10.72192097659132    2.61838827802565    7.86513028251454
H         7.60808175636126    4.45503614161734    6.36807709811286
H         6.23584418093103    5.03254035490635    5.45917591508775
H         6.03702200130114    2.64362459769764    5.86413037734109
H         6.23115222429124    2.88980974658729    4.12730410250056
H         7.58845610328282    2.31535108866874    5.09558364984488
P         6.74546492983586    5.80234537203086    1.79913773725803
C         7.45437771444127    7.32523726412574    1.07652147281630
Si        8.49402441338516    8.37932252473540    2.33096830605737
C        10.17743771099586    8.59588724086447    1.43429928102785
H        10.05408087271332    9.09056413472147    0.47544794444271
H        10.85660990591633    9.19888392245769    2.02722638037845
H        10.65905964769911    7.63876622197758    1.25192873931039
C         7.68731225436157   10.11163343511625    2.38388040742348
H         7.16410068383910   10.36058443644950    1.46568242168774
H         6.98548093392764   10.19787214653010    3.20583089379172
H         8.45174625131105   10.86374246238577    2.53725383167596
H         8.13150773091563    7.00412784352602    0.28370639547693
H         6.65984599934755    7.91420687721800    0.61556797754231
C         4.99986999866213    6.36315510299000    2.17284128900566
C         5.08070884627380    7.43860789712483    3.25088170049474
H         4.08168980676707    7.72309587878311    3.58051785816348
H         5.64137673416906    7.06366324023517    4.10915277567813
H         5.58740194454748    8.32569684460046    2.88253493498912
C         4.15597362608004    5.19393313681535    2.67261805901626
H         3.98225805717125    4.45992837198729    1.88955761533806
H         4.65930046268694    4.70282010280571    3.50463909534402
H         3.18562337646188    5.54966845666375    3.01794010960286
H         4.55552113430196    6.78733780001441    1.26418633701128
C         6.58578299454160    4.72961194692316    0.25827309005797
C         5.52258910617273    5.16682061881235   -0.74206376882524
H         5.62270498425918    4.59156451849033   -1.66178265180781
H         4.52127261510113    5.00168058413495   -0.35228506280789
H         5.63308149005052    6.22058038182828   -0.99001104982247
C         6.43303606419935    3.26305219086694    0.65455844138155
H         7.18448549505849    3.00221430381750    1.40187711451974
H         5.44975128120437    3.06493747875339    1.07335911993270
H         6.56613541857122    2.61831402223625   -0.21320613496962
H         7.57074822262584    4.83814701356140   -0.21839764735086
C        10.10856499384412    4.45624048607735    2.31000997470908
C        10.55392458299284    2.99563300828632    2.56014419064518
H        11.25109397357786    2.64361895407393    1.78767283075548
H        11.05698321643566    2.88978418842601    3.52450407184083
H         9.69966515963116    2.31534663621625    2.55623458035292
H         9.68003951318647    4.45504516172371    1.28379645136373
H        11.05230430635897    5.03253454618010    2.19265560600763

