54
CSD_code = TOHNEJ | q = 0 | S = 0 | Stoichiometry = C22H28CrO3 | MND = 9
Cr        2.98458318303460    0.38816129388086    4.00315438292273
O         4.53125384804015   -1.82478292489255    2.76710780545613
O         2.64276723399575   -1.70567337184298    6.07867194864801
O         0.78230231838442   -1.34295065747843    3.02317455270167
C         4.26380337542012    2.92688483908952    3.53983906548499
C         3.79709434742171    2.01162539830701    2.38310475862333
C         2.44565562013526    2.04189058475531    2.28008551289486
C         1.86295154623388    2.95983955059002    3.34159647013281
C         1.42556403597145    2.06251648773715    4.47070827797207
C         2.10427436822263    1.81392842024048    5.61440055716302
C         3.44927674837005    2.41176639821425    5.94482898290353
C         3.38232669535983    3.91868674987423    6.19438907877428
C         2.87473018628246    4.66727081362205    4.96096582285729
C         3.05362891398547    3.88084127693393    3.66109454049593
C         4.33515990883591    2.03919384221979    4.77639266064239
C         5.18396460473407    0.98211586738019    4.80626433936826
C         5.58987283709429    0.16660990321730    5.99910023602555
C         5.59167119316246    3.64310710808148    3.23949328863917
C         6.23431147433285    4.35270839398180    4.42587979068387
C         4.72169647117588    1.39446070273088    1.36621878591692
C         4.98795681243149    2.31124748659514    0.16710810836735
C         1.57523559173638    1.51668477071362    1.17668194124868
C         1.13615130329633    2.63493074712541    0.22427528610925
C         3.97667077719425   -0.90292163399331    3.19434167581264
C         2.81336114067226   -0.83889796288564    5.33059968534024
C         1.59260440896339   -0.59160900381770    3.37050491929635
H         1.00564133852231    3.53515692479440    2.97791976617050
H         0.39953818774974    1.71591326913912    4.39958347186345
H         1.58743292792230    1.30166526032328    6.41872698778485
H         3.82771649148017    1.94189187993849    6.85701810642654
H         4.37903606668445    4.26630883034153    6.46969808748498
H         2.72414294476411    4.11103858871342    7.04459242209366
H         1.80811627280248    4.87849365954592    5.07073500133273
H         3.38004997620316    5.63186409265958    4.88426462555444
H         3.12074134925600    4.59885920214328    2.83303310410293
H         5.87855420834790    0.86741259497473    3.98048442477027
H         4.84587987810358    0.15567535899383    6.78925450693713
H         6.52513383181743    0.56008461295160    6.40538791392015
H         5.77032934208126   -0.86198892872902    5.69538759391216
H         5.41945470508448    4.37237255421726    2.44387667983162
H         6.30957036470762    2.91085996930222    2.86689762882359
H         6.37784536565110    3.66244072327839    5.25397488297718
H         5.63277777937760    5.19211724390276    4.76138491956583
H         7.20913650990316    4.73736823480747    4.13241009300793
H         4.27526008382198    0.46976375188957    0.99481217866159
H         5.67771250134495    1.12851682334049    1.81903969527258
H         4.06144413659584    2.54162493682160   -0.35016899165238
H         5.65321736274278    1.81191613548267   -0.53349154130006
H         5.45299490826681    3.24402442247093    0.47301397321463
H         0.67842885038610    1.05899206515054    1.59870968797840
H         2.10700832429064    0.74771759370965    0.61495504484085
H         0.50856002897685    3.35973585820169    0.73747817350176
H         0.56396302066893    2.21542315701536   -0.59919891179258
H         1.99474429795788    3.16151610424045   -0.18546199976637

