92
CSD_code = TOHNUZ | q = 1 | S = 0 | Stoichiometry = C47H36IrN3O2P3(1+) | MND = 5
Ir       -0.08195254717488   18.01963691802867   19.62999852611311
P        -0.04776572335696   20.55525639988098   19.26617865854230
P         1.52116702859098   18.28273566092627   21.35249098711391
P         1.81005302342609   17.78565173613258   18.22064044182259
C         2.03105026334255   15.23479101948953   19.23765963339714
C         1.86754381906874   18.47631216159989   15.42928122823566
C         2.32471812131205   16.74704933728132   21.91927873986013
C         2.36816419758961   20.91708470951097   20.73656631744657
C         3.68495368590435   16.48169407457278   22.02319502078363
C         0.94885318843325   18.94372241251536   22.95125346515292
C        -0.57336060300268   21.19082217496324   17.64106419848699
C         1.73077736581953   21.18349799113405   19.36321108711418
C         2.53727290790178   20.59497361278795   18.19207759098875
C         1.60421709101948   18.16783504107481   14.10546686203905
C         2.73971768007445   16.26005298163862   18.61414603679525
C        -1.29021407371993   22.97225355010746   16.20226627813285
C        -0.66598225269944   20.30383819682445   16.57260978993165
C         1.40702656248122   15.77303241625548   22.31790852338237
C         1.63558631938402   18.67172302972457   24.13421900600008
C         4.06397680235136   16.03986518759891   18.24193738890738
C        -0.20528095994067   19.72103148637343   22.99307874666842
C         0.76464026661148   16.01805021293119   14.75248645858739
C         1.02781776252349   16.31652529168010   16.07441850127498
C         4.67071175751911   14.83049446480803   18.53059994936233
C         3.79617148688419   19.06204925866963   19.75448075194984
C         3.75347912328770   19.55894421000831   22.11848366800191
C        -0.65047823443307   20.25182705696844   24.18930353973878
N         4.42847429589165   19.66840694249305   23.03374399225956
C         2.91610624278638   19.49092309414658   20.93689899842646
C         1.05330085845869   16.94533450339177   13.76332865828750
C        -1.04787400860634   20.75166070641676   15.32185447262900
C         2.63690523404694   14.02209532689963   19.50595614182230
C        -0.90758708706018   22.53120440349709   17.45515693166024
C         1.58937457755336   17.54601590152703   16.42535042815861
C        -1.04722323938987   21.62012775798949   20.35215708205145
O        -1.83929289809177   16.81627737345616   17.47201815360737
O        -2.19692078061492   17.35952918992843   21.70305087194008
C        -1.18607076522363   17.26939503427471   18.29459628855530
N         1.72736542530956   23.73454394496012   18.91677740071109
C         1.70406748552278   22.61264273100999   19.13326977867447
C         3.08727194845849   19.16912659186837   18.39710740956827
C         4.11104879808228   15.25270296101847   22.49992825976191
C        -0.61494648632665   22.67207377316085   21.15081306894324
C        -1.35415840627355   22.08946506641036   15.13495057348732
C        -1.40216159493181   17.60883030484981   20.91864152618580
C         1.83761937936535   14.55667322388474   22.80579016630040
C         3.19602451845312   14.29049576235839   22.88775524439792
C         0.04839514856244   19.99851887691079   25.35778734596743
C         4.09389016697010   19.00562491907057   17.36455832733445
C        -3.30737005983973   21.96223057236111   21.11780601461747
N         4.91299221466035   18.97078287786271   16.56813059481209
C        -2.39830993884564   21.26496839613363   20.34882100333558
C         3.96353804710350   13.82198169852786   19.16403382932355
C         1.18363719378990   19.20343695640668   25.32730167330183
C        -1.53334010508210   23.36407199992579   21.92366576009396
C        -2.87263309563639   23.01479109213347   21.90991113584798
H         0.99331256766849   15.39209467652843   19.51207169459754
H         2.29854908089522   19.43851577040132   15.65628194305739
H         1.64041720036405   21.12667391574635   21.52930654045741
H         3.20233301157342   21.61779056917800   20.86780213638612
H         4.42961108196031   17.21967237231302   21.76881176556141
H         3.39942306695196   21.24965067683340   18.01055134502141
H         1.91021741698060   20.63578412442983   17.29512983054334
H         1.83455316146913   18.89338322413432   13.34065291878229
H        -1.54180353707426   24.01170806152666   16.06035624712741
H        -0.44475007621747   19.25428909544410   16.72592835887854
H         0.34665783306278   15.98584296924808   22.24561242243733
H         2.51589263535494   18.04655734811418   24.12608672136112
H         4.62822473763490   16.79724490579319   17.72124171166621
H        -0.76458153457071   19.90644435775427   22.08584480874185
H         0.33572284251835   15.06224834678721   14.49430356647822
H         0.80737518692415   15.58901552035864   16.84522583800892
H         5.70005014486679   14.67584942078833   18.24625666454607
H         4.14516924611280   18.03543457796269   19.89355719614767
H         4.68052729665043   19.71193030380577   19.73708723722123
H        -1.54391253341739   20.85726785648558   24.20366935836626
H         0.85038294684737   16.71398012242312   12.72941833586006
H        -1.11015483335319   20.05418420208326   14.50030636804251
H         2.07227542780588   13.23595079541721   19.98278870011528
H        -0.86974664747757   23.22520525865421   18.28157966366982
H         5.16936454102759   15.05650960965160   22.57598589368503
H         0.42007354477685   22.97704551441403   21.17242814932840
H        -1.65364491823930   22.44290068617995   14.16062433526357
H         1.11775831828283   13.81723050144609   23.12138797913292
H         3.53947151247662   13.33878446355296   23.26188713068862
H        -0.29650485743590   20.41084905844546   26.29308028691628
H        -4.35047050771088   21.68627876042964   21.10338692561661
H        -2.72223697339876   20.43289893789835   19.73258772549612
H         4.44265394061253   12.88005524950077   19.38031649162615
H         1.72178633776235   18.99302149745255   26.23826403464158
H        -1.19341030106721   24.18427495094222   22.53706149754873
H        -3.57867348888631   23.56164972159505   22.51525564904734

