39
CSD_code = TOHQOY | q = 1 | S = 0 | Stoichiometry = C15H16ClN6Pt(1+) | MND = 4
Pt        1.18184372101417    4.05095374350080    4.21170861795589
N         0.89408506031980    5.99574326841901    3.92884488204225
C         1.51965730817935    7.01133388749288    4.51771409863604
H         2.28341773247301    6.74426025808280    5.23791320063022
C         1.22153486512608    8.33171052885260    4.23533164006678
H         1.75927017733168    9.11671313017192    4.74208935433385
C         0.23306110117777    8.63763227434431    3.30230344404282
C        -0.41667979407962    7.56576294455719    2.68945262860194
H        -1.18819889010745    7.75787386033645    1.96089930647319
C        -0.07875477365509    6.26054623498979    3.01033139730376
N        -0.21137844440359    3.93320539173940    2.90104233310348
C        -0.71471371906832    5.07770834088285    2.41509917822664
C        -1.72325968685301    5.02449332059855    1.46024422140503
H        -2.14304407386436    5.93019624877360    1.05472089914521
C        -2.19976379212786    3.78859972181866    1.01882349093339
C        -1.64908711785236    2.61713292441672    1.55091627308663
H        -2.00822597331227    1.65736002475424    1.21756481998109
C        -0.64596239673145    2.72040537165769    2.50091027719348
N         1.04006834880457    2.06746750438866    4.09531292163865
N         1.55730441244340    0.96687348649287    4.60071113838057
N         1.00454464410580   -0.04574632318616    4.09942994430740
N         0.08052424134311    0.34566962078907    3.22441013828973
C         0.08969970939547    1.69315858815714    3.20826357319286
C        -0.13119777151511   10.03925041896510    2.96782834860391
H         0.52873984797322   10.74597656223287    3.46131323858864
H        -1.15503567615235   10.24245437601872    3.28044501582713
H        -0.08259705736336   10.19906454527237    1.89210656320240
C        -3.27534473364197    3.70005482869790   -0.00687048829845
H        -3.64615507873026    4.68359024420944   -0.27791548572073
H        -4.10544392181362    3.10120866810969    0.36401113006240
H        -2.89790165905691    3.21147488556897   -0.90441119241276
C        -0.72962346541567   -0.59206961028219    2.48474869707188
H        -0.54438209446709   -0.43635934164143    1.41677729079339
H        -1.78168790811671   -0.37550323831045    2.69715412930429
C        -0.38816863953848   -2.01791875989020    2.88219313065747
H        -1.01017684368931   -2.70621805957939    2.31827388738913
H        -0.56414897140672   -2.17271617971457    3.94261171082270
H         0.65528331491331   -2.23469089680811    2.67383041346672
Cl        2.78509799836443    4.18854720512433    5.71546583166876

