15
CSD_code = TOHSEO | q = 0 | S = 0 | Stoichiometry = C3H9AuBrP | MND = 2
Au        5.47423351056064    6.08483215616343    2.47577796031825
Br        6.12846545157968    5.21490860434151    4.57321079047284
P         4.84807724666502    6.91048502495201    0.47059955115587
C         5.40446089389086    5.96548401424872   -0.98790008906768
C         3.04855999374022    7.03816086756015    0.19629100313963
C         5.42592609652869    8.59921295573717    0.09063053889015
H         6.49312500709895    5.91689705335484   -0.98443111471908
H         5.06029083673442    6.43672382339271   -1.90948948411222
H         5.01054284283061    4.95140448898544   -0.92445515158171
H         2.61992725117933    7.68950301643632    0.95759085366374
H         2.60417474980877    6.04805481687633    0.29467184191677
H         2.83477373316072    7.44028691434101   -0.79482491799278
H         5.05412648954482    9.28126252066353    0.85504874474634
H         5.07201664201049    8.91773969051969   -0.89081949630950
H         6.51529925466661    8.61384405242720    0.11139896947878

