100
CSD_code = TOHVEU | q = 0 | S = 0 | Stoichiometry = C41H39F6MoN2O6P3S2 | MND = 6
Mo       15.03039844396590    6.50455254759519    4.03155016854621
S        15.96514670986550    7.89113992899566    1.67418106216726
S        14.44143349473507    8.34737032180288    6.93740801150661
P        17.33594850041154    6.10049795806815    4.79745440944520
P        12.65408473231808    6.68020866976250    3.42032904824780
P        14.35879201072005    4.69192727011709    5.49562356227452
F        16.83716093810260    9.52767439123284   -0.26788424892206
F        15.37062433652613   10.40572857630519    1.04273687503543
F        17.39793741726314   10.14255363598508    1.71798245325121
F        13.95789494064452   10.87309490712684    6.22452839990928
F        15.95833849049634   10.52055243499216    6.94451121479231
F        14.30849158349147   10.58427932068773    8.33052172398932
O        15.58370507268616    8.26286288923318    3.04807473999117
O        14.85603288258669    7.48294263725147    0.87167403653710
O        17.17613481291797    7.13606502952876    1.60937826593896
O        14.90626588963252    8.10666363875749    5.57555658629139
O        13.02962497030117    8.14876670934603    7.10932591159898
O        15.30427537000883    7.79921527996459    7.94579207055339
N        15.27629961070671    5.37353199103758    2.61970578761022
N        15.44365956360552    4.67377194157534    1.74732925991694
C        18.32477731462688    7.55640574973460    4.31486508884119
C        17.89748710112573    8.79318604327673    4.78979428578870
H        16.99520874147736    8.86116006463977    5.38276892008586
C        18.61872037264886    9.93673373410028    4.50287416179825
H        18.27974689882050   10.88989502946071    4.87969684643384
C        19.76633781777841    9.85600015436626    3.73090330362962
H        20.32399588610081   10.75015732420578    3.49677122054594
C        20.19018284441235    8.62820166007106    3.25307887374772
H        21.08137420362599    8.56146464117856    2.64636989756853
C        19.47765627388396    7.47745428640554    3.54302523865742
H        19.81497528830378    6.52623201303315    3.16051299094507
C        18.37041718676934    4.71430922334265    4.23049460007499
C        19.11454407696209    3.91603362643671    5.09290021691743
H        19.09506529255688    4.08461872273594    6.15777957135707
C        19.89203547708344    2.88682400383247    4.59130297626903
H        20.47023517198797    2.27652141162008    5.26957481264067
C        19.93158508124293    2.63988224159965    3.22990986876787
H        20.53882072511403    1.83421603813394    2.84415874575221
C        19.19674521445819    3.43479087260562    2.36475357035136
H        19.22899790372472    3.25354835551985    1.30115241686542
C        18.42243131456098    4.46901541933513    2.85772559785092
H        17.87403589341384    5.10801292705557    2.18055727086485
C        17.62277977050725    6.13226247278832    6.60883592891787
H        18.67528153337102    6.32417998969665    6.82082876793451
H        17.32080648845803    5.17995565606577    7.04442474366779
H        17.01496863235794    6.92151561979854    7.05457458441380
C        12.53572642760634    8.33553675530796    2.66359680801604
C        12.90391646111022    9.41121962469406    3.46802324054841
H        13.24188189121222    9.23676962343947    4.48144365684775
C        12.83656230964109   10.70196890238907    2.97856766798220
H        13.12445817043129   11.52738492708870    3.61189697575814
C        12.40561223870321   10.92827003613642    1.68109446744336
H        12.36368494586895   11.93488977404001    1.29356033903999
C        12.03601077496355    9.86106455748086    0.88105529125649
H        11.69991017185613   10.03398607482092   -0.13052809612292
C        12.09804340727485    8.56557766534166    1.36492103470464
H        11.81351679359837    7.74099790258164    0.72946846569715
C        11.81178379454060    5.61660197540751    2.20556254648950
C        10.56272627208274    5.04707217926528    2.43230501498958
H        10.03886404844633    5.21478207125302    3.35986005869118
C         9.97542797465062    4.24949322309693    1.46589141888153
H         9.00268754652384    3.81738876961675    1.65036364032768
C        10.62802156599105    4.00508482580667    0.26974287760550
H        10.16608109157098    3.37994061706075   -0.48022275979306
C        11.87171184397500    4.56988261466107    0.03696551999837
H        12.38468279493417    4.38853970513802   -0.89527034579217
C        12.46263981676482    5.37342894437456    0.99511842897638
H        13.42136743109372    5.83246539253182    0.80044243410110
C        11.40839198633431    6.86548061556587    4.75398022906788
H        11.82047952958088    7.50659706019987    5.53511343691241
H        11.18485745738293    5.89157147663186    5.18870284000068
H        10.49837673362347    7.31741228386763    4.35770208294641
C        12.92946252213817    3.66631022088975    4.95859922211953
C        11.85042086583158    3.36692857492578    5.78637945341444
H        11.78608426208803    3.77902773969076    6.78127851127391
C        10.83254257991482    2.54065844542952    5.33998324102024
H        10.00004846846413    2.32190617124902    5.99275582118226
C        10.88298271300792    1.98956491390386    4.07168209695467
H        10.09451107525990    1.33455241820996    3.73342254215044
C        11.94662992223648    2.29021106422188    3.23771250355936
H        11.98944420449980    1.87732850445037    2.24163423979193
C        12.95431412432420    3.13209668796109    3.67112265289618
H        13.76045773171968    3.37987279670930    2.99660852328647
C        15.55743794123870    3.32252096082051    5.75364548330878
C        15.95482010260220    2.87919643036293    7.01199609297292
H        15.60405364664424    3.36984599850975    7.90680014814950
C        16.81725270935235    1.80222126378876    7.13425173692108
H        17.11987545901742    1.47178320879901    8.11723003247656
C        17.28070029452841    1.14507941718109    6.00833760132522
H        17.93963853491469    0.29608959004035    6.10922141663821
C        16.90122015689603    1.58816053380949    4.75219336032532
H        17.26908730687702    1.09150728311364    3.86762828238724
C        16.05902660595807    2.67678314120695    4.62432063471604
H        15.79609610856622    3.03081238100188    3.63839329592159
C        13.89889646375899    5.14621764178617    7.20514435655528
H        13.62338350706308    4.27605718295366    7.80064987754138
H        13.07159673751608    5.85576693955709    7.16705133501538
H        14.73586729741607    5.66985836596557    7.66819100933188
C        16.42191880455881    9.58388405507208    0.99916241520516
C        14.67784410469843   10.18907310906545    7.11453301808264

