80
CSD_code = TOJJIM | q = 0 | S = 0 | Stoichiometry = C35H40ClN3Pd | MND = 4
Pd       11.67746472783051    6.08527386716345    5.00175590667752
C        13.30421269392619    6.18099370254200    6.05646716890506
C        15.39241006805593    6.79716770991190    6.86256805181597
H        15.43975745337937    7.78317509254773    7.34187171244790
H        16.39115777569340    6.54067019661465    6.51024625506365
C        14.78991082112345    5.73417380142641    7.78056233906764
H        15.32315178732272    4.77709675218152    7.71165302544986
H        14.76579825012666    6.03621762384471    8.82640896619169
N        13.44335711876267    5.57306825703855    7.23252118901586
N        14.42855062444286    6.83378008844720    5.76295068563058
C        12.43266999445359    4.87833138002374    7.95352309732773
C        11.00452703074597    4.71046585997114    9.87077922456174
H        10.63162079805168    5.12889451244906   10.79476586735853
C        12.41340061130207    6.75077546384680    9.66306575975530
H        11.60950735125761    7.21429010124744   10.22891055369345
H        12.66029926151272    7.40859363229139    8.83346786990414
H        13.27781250987382    6.65728134259105   10.32358160283295
C        11.91537771069036    3.67535283416118    7.46547634704775
C        10.94957034702553    3.00933174944609    8.20753453183716
H        10.54475130993221    2.08259065474737    7.82459845446451
C        10.48969140060998    3.50570685405376    9.41538906368562
C        11.96078308026836    5.41396733584395    9.15703108303212
C        12.35807532644082    3.10607499045987    6.14985175545831
H        11.85924612997078    3.65445253275812    5.32706503612461
H        12.08943195474438    2.05454154693649    6.07868167294737
H        13.43575796490271    3.20569243036772    6.02187381790066
C         9.46013667332678    2.76946242007500   10.21760953652160
H         8.99175840114763    1.98626025115471    9.62676845693845
H         8.69009298770063    3.45321476351341   10.56895754702902
H         9.92353172527748    2.31020402963380   11.09134723006963
C        13.88238193948183    8.76574608713044    4.37717589310460
C        14.64867886173874    7.61649183316659    4.59833190340666
C        15.64253580879124    7.23792721792137    3.69148528723182
C        15.83622527650965    8.00523577409741    2.55453085269956
H        16.58929139260226    7.70281988392563    1.84094924241989
C        16.50079144182498    6.02728582314346    3.91060526904515
H        17.42277324042417    6.30185713407959    4.42650202816054
H        16.77395436307252    5.59018411566580    2.95368616723614
H        15.97806636777104    5.27619347454700    4.49590433188549
C        14.12480368648031    9.51594576996365    3.23504587459670
H        13.54297404704191   10.41148643568542    3.07072751869838
C        12.81890102698060    9.19680836605264    5.33709069609374
H        12.52228808377129   10.22457129198357    5.14395512170244
H        13.15527800523801    9.11536185994963    6.37041004019062
H        11.92399121888330    8.56244759121582    5.22795647158723
C        15.08408776426212    9.14414105728322    2.30785989719285
C        15.30404251856455    9.93741052977011    1.05569120387300
H        14.73385329238842   10.86275807803612    1.07428662755593
H        14.99283595201750    9.35545453914840    0.18826612051856
H        16.35874908777879   10.17760706526880    0.93233158227619
C        12.67693891498825    5.63799893107058    3.33598113805437
C        12.24947217399603    6.49900413863328    2.31074412674155
C        11.15105240326986    7.45407854355082    2.58867908874509
C        13.64823246377199    4.69645139888008    3.03285945483938
H        13.98140531910882    3.99248924063742    3.78625473564068
C        11.22003212609071    8.74659836615388    2.08547153836161
H        12.07216293737321    9.01898675242199    1.48146672435100
C        10.03174715799845    7.08183719299497    3.37740532842523
C        12.82847004429452    6.43803778663402    1.04751597601417
H        12.48447674362512    7.10019416013795    0.26432349830192
C        13.81420828394267    5.50562229912760    0.77774386216011
H        14.25811960368435    5.45772054179720   -0.20672541449385
C         9.05890255945189    8.03994221037552    3.64981784365555
H         8.20100404573232    7.79399954562371    4.25432021844480
C        14.21026107007021    4.62373068881364    1.76543178719816
H        14.96042800015173    3.87412601183555    1.55171378188561
C        10.24648659045756    9.68855564349407    2.37200517881133
H        10.33030717739035   10.69149677443431    1.98032460769377
C         9.17748859746943    9.33591998408527    3.17129579289525
H         8.41547592355131   10.06023150410200    3.41778252477408
N         9.90302268623654    5.71565228185993    3.80921541836933
C         8.77567917976001    5.42341362417326    4.69436191866977
H         8.78556885494707    6.08613079816510    5.56028447138364
H         8.87998420268018    4.39621096728191    5.05430468183853
H         7.81456106408364    5.51187060606839    4.16902173129647
C         9.81816893915465    4.78599633268544    2.67830859377801
H         8.84848050342195    4.89563232360204    2.17334199864341
H         9.90666928494733    3.76123180647842    3.04391535574262
H        10.60669833669060    4.96047072783028    1.95062119775928
Cl       10.48807754606998    7.01833311179054    6.84293690182008

