72
CSD_code = TOJMOV | q = 0 | S = 0 | Stoichiometry = C29H40Si2Zr | MND = 12
Zr       14.19455476418325    8.55818518834703    5.90935006086583
C        13.53730220782979    7.22215581592598    3.15283517433242
C        13.54283665646092    6.53897721365844    4.53130377907085
C        14.73483403111356    6.27581181720160    5.30063352290401
C        14.35898963314483    5.59016617778840    6.52193404601102
C        12.94457676119452    5.42281694672007    6.49875660176383
C        12.44442790942099    5.99140059006902    5.27795760375761
C        16.12725131885209    6.51288802734804    5.10926708934990
H        16.52179169502043    6.94251154439958    4.19668325489702
C        17.04178867883595    6.04400684157916    6.03054971616855
H        18.09658221443910    6.19441774684115    5.84525995128098
C        16.65049316950051    5.35737249039030    7.18410829459080
H        17.40050581399304    4.99556341840232    7.87064949309805
C        15.31131652826317    5.13343080283209    7.42837652795783
H        14.99847826040771    4.58944059517649    8.30818664986408
C        12.10193993611037    4.81436889383402    7.42783701006836
H        12.51424435644375    4.39698438326869    8.33548595720839
C        10.75295158410397    4.75269170715427    7.17360804826622
H        10.08177460375390    4.28728448486330    7.87977299739909
C        10.24691561752372    5.28653141966661    5.98564150569741
H         9.18528672047557    5.22010036434193    5.79308808899332
C        11.05784628970740    5.88786291709143    5.05201296950268
H        10.59694115091077    6.26338504688025    4.15473169000096
C        13.90023045316886    8.66700505946046    3.47576877068617
C        15.20426735617176    9.18772649313100    3.64632671949940
H        16.10618990879576    8.80941644726085    3.18267738530257
C        15.10226643153066   10.44882841290260    4.27044379286663
H        15.91052257457386   11.15587194226245    4.39153776818556
C        13.74029890144427   10.70925489211497    4.50691172351625
H        13.32839486061485   11.65512019095213    4.82823230813322
C        12.99465557992874    9.61062270998340    4.02585327051456
H        11.91283037838163    9.57953584177198    3.97521107944562
C        12.18184036155923    7.18878001429964    2.43407148954194
H        11.86472846934278    6.16235074151354    2.26724979347155
H        12.28828585196196    7.67563592571028    1.46559402912556
H        11.41149572034087    7.71653840250119    2.98631720702386
C        14.52896457942343    6.55338810276065    2.18352195757561
H        14.15743691088237    5.56571222602689    1.91685765317635
H        15.52037097449092    6.42399281722972    2.60066976327440
H        14.61182436443752    7.14725479245127    1.27498193102168
C        15.39825877652544    8.60264790653580    7.77309900052499
H        14.74107747418357    8.69219979816730    8.64613204497341
H        15.94280525729244    7.65870227456061    7.89632751956179
Si       16.61628524448683   10.02301039335949    7.70904860020078
C        17.71157288818796   10.38263275227771    9.24295149748032
H        18.37095727647764   11.23046276153263    9.08212574521912
H        18.33214464979514    9.52681490158371    9.48947824508621
H        17.10146476279638   10.60280888343596   10.11354766615715
C        15.60659300031678   11.62807032701179    7.37090145224736
H        16.09223134156289   12.28164240350549    6.65284692485048
H        15.48391047642996   12.20422899233875    8.28283009528890
H        14.61055875519494   11.38117904821470    6.99527888228954
C        17.82157670021300    9.65910784934828    6.25462721901331
H        18.63914180579150    9.03057371130532    6.59302771057709
H        18.26301387058071   10.56323714330765    5.84717786233398
H        17.31641469337902    9.13184792297518    5.44506548827583
C        12.26057984463191    8.62001330495032    7.00900115981998
H        11.49056703020402    8.38773260017338    6.25519121350998
H        12.30562685028149    7.74133522394744    7.67534041937917
Si       11.62750169620148   10.06077662061124    8.04514455925784
C         9.86443894493654    9.72114889961871    8.73292726171331
H         9.51773551906390   10.52478059781037    9.37553405964859
H         9.84254950368216    8.80479982136342    9.31476080022147
H         9.14216724748900    9.61093557485201    7.92960422180205
C        12.72961583960349   10.40511106980084    9.57599611126360
H        12.28529456489723   11.17571126570462   10.19817435272749
H        13.72599647841720   10.73650195677226    9.30382348505049
H        12.83068595579308    9.51522955964607   10.18969488242714
C        11.47886879103272   11.68994163638332    7.03724085261707
H        10.77178756627959   12.36225389538965    7.51277592175502
H        11.11925195444745   11.50680603987616    6.02904433126190
H        12.42409166103119   12.21946541751246    6.96952373793763

