74
CSD_code = TOJMOW | q = 0 | S = 0 | Stoichiometry = C28H39CrN3O2S | MND = 8
C        -0.02476616909800   -0.14658766816216    3.28685730683136
C        -0.22779495218031   -1.35495362082519    3.96928793842031
H         0.39772990745400   -1.62616729738967    4.80403683750296
C        -1.25478872168760   -2.19433525042724    3.59922969641008
H        -1.41079132437545   -3.11855208326609    4.13501746321408
C        -2.08466099317388   -1.86534072925460    2.53059969226761
H        -2.85884730985267   -2.55236347690276    2.22336138031940
C        -1.94741036071047   -0.65862476077865    1.88134252291025
H        -2.62802647345879   -0.42098986178001    1.07987572955974
C        -0.95913466750062    0.25236546013607    2.28585777666440
C        -1.49923117134922    1.99617422267545    0.74198063628611
H        -1.81013035844472    1.16058320623265    0.10501741691099
H        -0.85852628488012    2.64043245260328    0.13603116472004
C        -2.76250647450924    2.82027201027094    1.12492919711120
C        -2.36698925419151    4.22272003638857    1.58408312394800
H        -1.81675963859001    4.74734083684185    0.80662140756417
H        -1.75862490145125    4.17579608491275    2.48456089731324
H        -3.25797137180134    4.80281299407489    1.81408261287077
C        -3.63595870143047    2.93165854905506   -0.13002112068955
H        -3.08223772947546    3.39274826304942   -0.94519885149193
H        -4.51126576965048    3.54268308929024    0.07592908844747
H        -3.97670097511883    1.95176905757358   -0.45852835562315
C        -3.55998160010173    2.15404683746014    2.24599755768385
H        -3.93544560821100    1.17872358218440    1.94881599741230
H        -4.41080746017422    2.77865194588897    2.50880912051537
H        -2.93915416791888    2.03717132319106    3.13119677587672
C         2.11518671539979    0.40629226651845    4.22134315772014
H         1.81640456138839   -0.11061055045420    5.14150852612272
H         2.59698226705971    1.33817450700644    4.52076212897994
C         3.17994564546726   -0.48048047267570    3.50361111485056
C         3.35714451160297   -0.05843644666170    2.04520924810515
H         3.83257674104845    0.91430159743708    1.97583224560424
H         2.39044783819616   -0.01542781357895    1.54564450283049
H         3.98541808885433   -0.77889929935996    1.52543596287040
C         4.50331552548980   -0.30566187204332    4.25660467606354
H         4.83266142425257    0.73066688535973    4.23613716653577
H         5.27902754738961   -0.91716725490032    3.80153687615693
H         4.39591669492989   -0.60915000587009    5.29576249197874
C         2.80556279763565   -1.96432350730737    3.52945291762284
H         2.65408642161524   -2.31397480496766    4.54817597529073
H         3.61100448509250   -2.55228827485226    3.09301494582582
H         1.90202434415529   -2.14677835160163    2.95523150737019
C         0.63013194876948    3.99683439559144    6.36911677525777
C         1.17827880120989    5.19809437202754    6.77662928232225
H         0.71384649381941    6.11506818031927    6.44910781164918
C         2.30896391428329    5.19610897574181    7.57344350836095
H         2.74461355958345    6.13129107104812    7.89417323292738
C         2.89816116509243    3.99702661596093    7.96653641058093
C         2.32511483765956    2.80000123369130    7.55324326888334
H         2.77057959847418    1.86313772628302    7.85546562422745
C         1.18909127322941    2.79743700330146    6.76026116751465
H         0.73254495457534    1.87394755159141    6.43871367697296
C         4.12470891953603    4.01216561676950    8.82647593168195
H         4.51050277384435    3.00738583617269    8.97621584062875
H         3.89462920472180    4.44350799371841    9.79988766712645
H         4.90236460256199    4.62243068372735    8.37011966103291
C         2.12888770586785    3.10892831577651    1.41242815054775
H         2.58412387092502    2.51823794059436    0.62865614182557
C         1.10760779699055    4.06644666433694    1.21667818128284
H         0.62813910746943    4.28356819451563    0.27519045088303
C         0.98568676804655    4.82435225423326    2.38894939585793
H         0.33605839689518    5.66787042726208    2.54299908535547
C         1.92125765749015    4.34124209332260    3.32003705028980
H         2.13186271123474    4.78083966276503    4.28168519194681
C         2.64105443418818    3.29552923777545    2.71790380781576
H         3.54052565094054    2.85309687629600    3.11557617827844
N         0.95413754943473    0.77006108009516    3.45011851308454
N        -0.71459836564089    1.50536822782716    1.84515269099042
N        -0.62657550450704    2.73099162033125    4.33826963008672
H        -1.20431127850345    1.99111573703573    4.71804418887045
O        -0.82929421196401    5.22182154908272    4.57602535063984
O        -1.96837485768105    3.73915107773938    6.17768959573739
S        -0.83096548620560    3.99748652995361    5.33202438356054
Cr        0.51282292998483    2.51098345000846    2.86324569689272

