48
CSD_code = TOJMUB | q = 0 | S = 0 | Stoichiometry = C23H24Hf | MND = 12
Hf        5.69434006588722    1.42499253486161    6.70299269499656
C         7.03784252840062    0.13655392409801    5.55173727902657
H         7.91088971586812    0.67808072236237    5.16911006637531
H         6.53715579596215   -0.30467838775235    4.68177411638298
H         7.42727225577786   -0.69586945064960    6.15040525167940
C         7.15156352189880    2.06874015126321    8.20420459500497
H         7.54071149475711    1.22886260050849    8.79228799875521
H         6.71865450177141    2.78152770661783    8.91582049770606
H         8.02154474581286    2.56290774938875    7.75658283078088
C         3.93836365376875    2.84370628104502    5.76254165390997
C         4.68796062863144    2.42269684805280    4.60971650387869
C         5.96689830662839    3.10470797069511    4.60611568960000
C         6.01468222379312    3.94292866563161    5.76045707166391
C         4.76628683896071    3.77724592052959    6.47724091475788
C         4.58483416352141    4.59170470352313    7.62133945634660
H         3.66711327106898    4.58019719928928    8.18499809754797
C         5.56233106234867    5.47748593901300    8.00668259288770
H         5.39501218579663    6.09535068477597    8.87741401066497
C         6.76072059419539    5.62005845205383    7.29722022472589
H         7.49509797378340    6.33799920732161    7.62852497846697
C         6.98309183947376    4.86219332922885    6.17298111991042
H         7.88939757298574    4.98236128836009    5.59597738369686
C         6.87486880381540    2.95915238923694    3.55372263495131
H         7.80609110691571    3.50814600284640    3.56844599345890
C         6.56193921867645    2.13541354044264    2.49951067565299
H         7.24896347096439    2.01394888524608    1.67626821873950
C         5.33266925062655    1.46570744805879    2.48064359201451
H         5.09418320361322    0.83746644808969    1.63425275228951
C         4.41277469801872    1.59577804959696    3.49332340448861
H         3.46621892413868    1.09446038502891    3.37950030265572
C         2.69647938284794    2.13338651241406    6.32794548091869
C         3.33658689684756    0.99404843275900    7.11755330385763
C         3.90690145979386    1.11542522457600    8.41053821585820
H         3.66759666117983    1.86208048890128    9.15542705494847
C         4.65413130364324   -0.05509195712409    8.67513180464034
H         5.08391530407892   -0.32209295885734    9.62873892937690
C         4.59979647607352   -0.87308041735166    7.54113797575797
H         4.98060701272756   -1.88050229147456    7.46798447552176
C         3.81892987397630   -0.21805372712258    6.56183869841854
H         3.49962088192647   -0.67727349192222    5.63634628713744
C         1.83792867012931    3.04065114813127    7.22370938673938
H         2.29649524722844    3.23483399423653    8.18523399679946
H         0.88334837935132    2.55767456593555    7.42327999768672
H         1.64575769141011    3.98696405594983    6.72291656552092
C         1.74941951739995    1.61567081806039    5.23337120106252
H         0.80219392834090    1.31983826300463    5.68004170741971
H         2.13814651291273    0.74481283313431    4.72052958088569
H         1.55527118227101    2.40038131798469    4.50548273443361

