92
CSD_code = TOJMUC | q = 0 | S = 0 | Stoichiometry = C32H51CrN3O2SSi2 | MND = 8
C         7.29260740716631    4.06110184860399    4.34205536039577
C         7.93038619978705    3.85332704432802    3.08711178199623
C         7.92453844377965    4.88943771546747    2.14147669179454
H         8.46526502094284    4.77101972807212    1.21818417044810
C         7.23585620697009    6.05555707713582    2.38624144726454
H         7.23845387747950    6.84579918093549    1.64978359141842
C         6.51864452011767    6.21257769770736    3.56925752417522
H         5.94416137201234    7.11193401383624    3.73474447405809
C         6.54487750232293    5.23091624166745    4.53457056730813
H         5.97799978303546    5.36206362724813    5.43886688377483
C         7.39839861043137    1.99048931289132    8.24416768386931
H         8.34263528177715    2.31966522103810    8.66411347693698
H         7.50845290347254    0.96894386197036    7.91509608806731
H         6.66835378936501    2.00734068866654    9.04864001088073
C         7.20286505821526    4.86503452731759    7.55726508842771
H         7.64257250161362    4.77467937533144    8.54548543690326
H         6.31339899219932    5.47609738468325    7.66644907812801
H         7.90175812559120    5.41261125967166    6.93385758537951
C         4.89050749231374    2.85001162386394    6.66466118807548
H         4.45405716948379    3.46366045809575    5.88263814696113
H         4.38040935150349    3.08313321755032    7.59457991762264
H         4.68436881538094    1.81191772694719    6.42129508906099
C         9.46914914338672    0.25134273049200    1.19260883155952
H        10.41693282979306    0.15273096596187    0.67247135896022
H         8.73457783528421   -0.29877040218322    0.61310703106671
H         9.56874569482897   -0.23672477293223    2.15238003727864
C         7.51940579445902    2.29433087191200    0.10938938447829
H         6.77012026514573    1.52483590025006    0.26898491508021
H         7.87840620937592    2.19561959020141   -0.91065958340465
H         7.02535333765286    3.25535147389269    0.19612021659324
C        10.50287149299363    3.13246452614068    0.83064317518171
H        10.77674277765847    3.85288665371110    1.59512294991157
H        10.30989329661395    3.68221991729731   -0.08514381071660
H        11.36917846598689    2.50495594933792    0.64520006901599
C        10.51828222949839    2.29858616775834    4.95528438727598
H        10.91125110526835    3.28820369495817    4.75796729367698
C        10.68767177878315    1.16239780508212    4.11089022759119
H        11.17065647804373    1.18017979515767    3.14831491146828
C        10.33218514222855    0.02091076301590    4.84330348242130
H        10.39290066428986   -1.00300772349903    4.50609523360422
C         9.96063308416122    0.42808699139463    6.13407191681767
H         9.67232748701447   -0.22893391021173    6.93876832758997
C        10.06283433755492    1.82595635513295    6.20762578747518
H         9.96311485972728    2.42307282076418    7.09820408510502
C         4.95843536793148   -0.49674259203473    4.93344844435546
C         4.47868252085356   -1.00541106244543    6.14294223372099
C         3.11066559393028   -0.98158221833309    6.38159353276326
H         2.73653902132388   -1.38559788343613    7.30775444269575
C         2.21980474685692   -0.44067406623348    5.46922318391922
C         2.72464131261679    0.05413494665017    4.27884628722666
H         2.03904296796965    0.47780215550699    3.56238694143915
C         4.08346330905636    0.02303641664492    3.98164941783115
C         5.38173732555126   -1.61140551786964    7.19035917684750
H         6.40722511225924   -1.31268289649529    6.98208167676355
C         5.03443323099384   -1.12930026994418    8.60141004102820
H         5.82469510557206   -1.41974873384717    9.28977438106978
H         4.10546841700613   -1.56749517011523    8.95900793929706
H         4.94451186140347   -0.04593663064338    8.61884498190776
C         5.30821148386847   -3.13805916428347    7.09329597248862
H         5.70404872391901   -3.45842908909514    6.13307583216246
H         4.28043406695226   -3.48357544523508    7.18850927517158
H         5.90409776009359   -3.59087678920857    7.88231346558464
C         4.55849369145015    0.60535656169508    2.67263133780941
H         5.50957474601871    0.13800916784221    2.41734993455199
C         4.80145441300446    2.10499892710961    2.87115540925773
H         5.11031024096068    2.56877684834231    1.93825886488550
H         5.59234133756772    2.25439108632480    3.60475646697273
H         3.89304103892082    2.59288090231064    3.22000937141450
C         3.59042342135626    0.36152051850997    1.51185246948829
H         4.08343807401574    0.60322370204904    0.57295409125678
H         2.70627890201689    0.98906945501686    1.58834664254368
H         3.27980779985109   -0.68040235818057    1.47960258619997
C         0.74242600560320   -0.37153873191750    5.76710276657401
H         0.23816110692864    0.06344577408306    4.89730278242610
C         0.16081456313281   -1.76604461547112    6.00573255948284
H        -0.91568281566047   -1.70344905183309    6.14881246476293
H         0.59650420566701   -2.22276537105219    6.89041784858464
H         0.36030864896071   -2.41074395013789    5.15273234946373
C         0.48866183765263    0.53874168872003    6.97117173580702
H        -0.57967865439544    0.63713621980420    7.15055095259925
H         0.90393054073031    1.52766690683441    6.79116292201186
H         0.95165106837026    0.13163794974970    7.86625536157352
N         7.45887547211532    3.02951846504631    5.20241670728170
N         8.46064721757880    2.62253261939478    2.94584536563861
N         7.37255267320773    0.28944233589413    3.55079182213146
H         7.52489347340091   -0.24770298780941    2.71434234073544
O         7.21658152772324    0.38714440801238    5.85551667188514
O         7.19856115404182   -1.87272216712147    4.82211936336029
Si        6.78208233890265    3.12466176434022    6.83713575443150
Si        8.96807073726259    2.09097048620550    1.35174829594836
S         6.76380888822172   -0.49766842820875    4.77147417900952
Cr        8.50642568257335    1.57614088816937    4.58174184466162

