66
CSD_code = TOJSOA | q = 1 | S = 0 | Stoichiometry = C25H33Cl2N2OP2W(1+) | MND = 6
W         0.89611087679645    6.24013598702990    0.39146324971301
Cl        0.02102485080160    8.35218665917341    0.41245289951900
Cl        3.07544934579599    7.18769514326462    0.57314159072599
P         1.02372165532774    6.67773115498908   -2.04527055284775
P         1.02136132847876    6.38873645633228    2.87558057770754
O        -2.22593208454694    5.90735463271343    0.38129687716662
N         1.44212207293323    4.51339067461347    0.21301594655177
N         1.83055475239127    3.34061657498360   -0.22756426861530
C         3.11179268304843    2.91024121247829   -0.00998783051283
C         3.53886278397291    1.71979434291573   -0.55529194529809
C         2.69800056629306    0.92618408978692   -1.32851529451829
C         1.39186746793855    1.38026543320296   -1.50247605300142
C         0.96390677938910    2.56560512885122   -0.95382124284708
C         3.99091505827419    3.76723115555391    0.82804102454057
C         3.15586739188048   -0.35738485678629   -1.92325684480830
C        -0.42275837174523    3.07915618974011   -1.11536430971987
C        -1.07359931584998    5.89640752080340    0.35688916795907
C        -0.52798046173527    7.01161423773222   -2.95106110891456
C         2.02058480240499    8.13385515169042   -2.51674589227962
C         1.85362191818414    5.32261378228023   -2.93147715743701
C         3.14803126655672    5.02141566386579   -2.51005074791649
C         3.84036224195592    3.97154951162371   -3.08238372042611
C         3.23996854117744    3.20292268690827   -4.06811202476562
C         1.95209471864268    3.49353983174081   -4.48411874084950
C         1.25650588089109    4.55014442075951   -3.91970239945196
C         1.03000134193287    8.09274373289023    3.51842985397274
C         2.50857592003478    5.68187585753395    3.67686007644917
C        -0.31294289034399    5.51497680942910    3.74890828731189
C        -0.64676651355140    4.26381099999424    3.23379319781659
C        -1.63981120512855    3.50736019637718    3.82424968925003
C        -2.31708516056268    4.00393864906783    4.92843976954696
C        -1.99403451465803    5.24925969273410    5.43906634114576
C        -0.99131594607670    6.00645895732621    4.85545045645670
H         4.55558184071008    1.40899893970911   -0.37276546368462
H         0.69298253882516    0.79565909830477   -2.07930243050726
H         5.03509305963513    3.58963602374436    0.58969854636947
H         3.75600103422381    4.82401545819970    0.68670759605823
H         3.84182138998008    3.53108531803523    1.88239223174026
H         2.83708976756946   -1.18888234959868   -1.29391647955008
H         2.71788721723245   -0.50495635100323   -2.90724591060710
H         4.23873751771089   -0.39021443843321   -2.00037366377144
H        -0.89427717159094    3.21370909838908   -0.13965968376080
H        -0.40386961445803    4.05611031772636   -1.60533630014200
H        -1.01678924707176    2.38902632293080   -1.70558691433664
H        -0.98287367657552    7.89846410848460   -2.50656823437647
H        -0.32094399841685    7.20531934820598   -4.00357136157315
H        -1.22774312111296    6.18263157273757   -2.85283674436902
H         3.02904321171048    8.04368322452287   -2.11392428280525
H         2.06352453333165    8.21966835262340   -3.60302386597737
H         1.55232290984331    9.02458637671206   -2.09331876749224
H         3.60556517673856    5.62237657546383   -1.73341155122984
H         4.84840946570366    3.75245961679028   -2.76478911967957
H         3.77966126614233    2.38273722476471   -4.51579391273694
H         1.48757319271756    2.90053589979325   -5.25698499729443
H         0.25549907729733    4.77182983406522   -4.25754382493248
H         1.22845764599416    8.09617245473286    4.59049624339756
H         1.82111950290065    8.64544845828268    3.00612593236308
H         0.07326170871347    8.57405228047788    3.31098761349044
H         2.48738167270804    5.90138971672567    4.74460554073832
H         2.51531853829797    4.60199882561922    3.53447450488964
H         3.39952015352093    6.11866728550880    3.22583247451700
H        -0.11158381905015    3.90287211848070    2.35721786124398
H        -1.89439241959277    2.53645456835621    3.42631182773059
H        -3.10039229694752    3.42011166622025    5.38623992311311
H        -2.52565474890289    5.63566514186769    6.29509468230169
H        -0.74991008866261    6.97706022998470    5.26128965923858

