115
CSD_code = TOJYID | q = 0 | S = 0 | Stoichiometry = C66H42N6Ru | MND = 6
Ru        2.35900247943352    3.59483016990809    8.30791724251533
N         1.99420679632576    1.71095327773584    9.03169157052330
N         3.09012682757413    4.15778081267004   10.13593659712477
N         2.77823389695235    5.45313337835208    7.57049438201235
N         1.60496171896631    3.04320554526181    6.48197545532025
N        -0.56105447765829    4.20958684246349    9.02899186313804
N         4.81103235850682    1.88808391386812    7.72597759837536
C         1.47749679294138    0.67071766000943    8.32804674249035
C         1.39397805859517   -0.48240116584343    9.18273614118009
C         1.87855421156572   -0.11325924122835   10.39300750739898
C         2.26398063421500    1.26775550858292   10.28665946530806
C         2.79922286747027    2.02769324268518   11.32971319766006
C         3.15917956474708    3.37514165819770   11.24476722472325
C         3.71788382058212    4.13771719120357   12.32871518781217
C         3.97280433779968    5.37764745016037   11.84935006195023
C         3.59070547409500    5.37746862182897   10.46272848288591
C         3.72853280498773    6.46751752971833    9.59907266861085
C         3.35862127272450    6.47611400573703    8.25127114845635
C         3.54828066326718    7.59128019713915    7.36264263381888
C         3.05135042082397    7.22474741950169    6.15828233320748
C         2.55455529331655    5.88231130288793    6.30046177262568
C         1.94876343388671    5.15238308796942    5.27393193163208
C         1.50767259682762    3.83052851770507    5.37973749651156
C         0.88583037297113    3.08529269680411    4.31853492100027
C         0.64431336367070    1.84249444086067    4.79824676026955
C         1.09674588469387    1.82411223834175    6.16310548283488
C         1.05331099262017    0.70443302183777    6.99740376067462
C         3.02122738565949    1.33955298125371   12.62167338818709
C         3.98106795404943    0.33756976711966   12.72339293168093
C         4.19661693858698   -0.30572771612372   13.92859840589488
C         3.45298505180907    0.04010218819792   15.04454119114870
C         2.49292683803504    1.03366927586192   14.95013782158870
C         2.27895005222255    1.68162620699260   13.74700293978500
C         4.31192164213707    7.70986782786299   10.15245102603111
C         5.62828845568346    7.73626106333946   10.60206438647192
C         6.17028973243653    8.90071969901826   11.11508241661617
C         5.40386396936295   10.05174820923621   11.18968376999579
C         4.09206769957034   10.03347136656752   10.74622517111435
C         3.54955109526083    8.87139221947224   10.22874820189003
C         1.76277723591178    5.83214111234115    3.97252991207076
C         2.43064643303589    5.38478497967439    2.83694361808570
C         2.25407674596121    6.02361870685346    1.62302115445533
C         1.40537080098319    7.11368814013855    1.52670290875734
C         0.73569039047342    7.56443844412254    2.65194882601905
C         0.91452615819682    6.93009169272998    3.86779221550130
C         0.53542760249046   -0.55921275456050    6.42465172073477
C         1.39579081307525   -1.63278397411212    6.21734357754462
C         0.92095774187540   -2.81724966570886    5.68411554875372
C        -0.41860066107512   -2.94511027683204    5.35658569667611
C        -1.28135411528236   -1.88160096330839    5.56207073422290
C        -0.80768965726671   -0.69440047804435    6.09089092822013
C         0.58283417661966    4.08488922289756    8.79754179247196
C        -2.89650500385705    3.98393171298532    8.39889437362251
C        -1.86759556234773    4.37080448176056    9.27156336897290
C        -2.41670100895985    4.95348411594716   10.42400088159134
C        -3.80205060276899    4.94576108231766   10.29464737058644
C        -4.69920501959011    5.44453911757259   11.22861005542062
C        -6.08200084222849    5.47468822061902   11.16651734281248
C        -6.92080806116522    5.01467131963870   10.15902316210538
C        -6.60720263251357    4.40728352046606    8.94934997846841
C        -5.36282188138031    4.09886381836511    8.42751431727350
C        -4.11170604589812    4.31890483211322    8.98672610057777
C         4.02498793146129    2.75145659592746    7.85730829319010
C         5.11890949056705   -0.45602466952946    8.24843562531916
C         5.54041908207645    0.76401089965662    7.69264688373900
C         6.80803388362511    0.61037722243124    7.11557024992676
C         7.20888619944065   -0.71084209904217    7.29731204068903
C         8.41026860872803   -1.25443281999208    6.86761195090853
C         8.87178743114234   -2.55233113548788    7.01354832890085
C         8.25253427658667   -3.63666028462646    7.62125059329348
C         7.01334306423422   -3.71837122825056    8.24556116996830
C         6.06559390600327   -2.72692517525640    8.42762561096725
C         6.11632167520312   -1.39839314223507    8.02784346970493
H         1.00386656397506   -1.43854534836059    8.89120439222158
H         1.96014496330425   -0.70987504260494   11.28104021632382
H         3.89228934851628    3.76509987194334   13.31940026278513
H         4.37967889139918    6.21751892274386   12.37810284984316
H         4.01252149071413    8.52091455096063    7.62888691830096
H         3.03129949116250    7.79731774744912    5.25138787722741
H         0.66596500811167    3.46878548434778    3.34118780417363
H         0.20434292683016    1.01047700164219    4.28342245351726
H         4.56435070772727    0.07399923350472   11.85232043720833
H         4.94832784353359   -1.07884706349881   13.99792511978529
H         3.62129408663444   -0.46324313485776   15.98532070400790
H         1.90847349297349    1.30459505697662   15.81761504142256
H         1.52722585601872    2.45388488055098   13.66910582836853
H         6.22677185498979    6.83902251865858   10.53680740895017
H         7.19507462856178    8.91085601271205   11.45741596759494
H         5.82771478952890   10.96031041103251   11.59164370506722
H         3.48947453174213   10.92850835679266   10.80373025300452
H         2.52478791105582    8.85347520556628    9.88646963449585
H         3.09718458385084    4.53798834512711    2.91538996462817
H         2.78100965266430    5.67011793856382    0.74845417525419
H         1.26650483709162    7.61059626278075    0.57774923865094
H         0.07118293063268    8.41354190338397    2.58164408485587
H         0.38942831500170    7.27691546058750    4.74621759906985
H         2.44186527886484   -1.52842759834550    6.46918954519842
H         1.59855367290392   -3.64336535657708    5.52292439598458
H        -0.78926818422775   -3.87129110173005    4.94238281376999
H        -2.32770823443986   -1.97824391539412    5.31038336932319
H        -1.47969222542779    0.13509963467288    6.25802759725027
H        -2.75453806741024    3.51350953727299    7.44386534823033
H        -1.85575250236436    5.33699517093553   11.25558386397966
H        -4.24964341244652    5.86518224163873   12.12146300896766
H        -6.58035245119233    5.91794975354365   12.02027334782631
H        -7.97997112570626    5.15100794132618   10.34441340184812
H        -7.45492377890616    4.14040040501285    8.32975886857119
H        -5.35443013498166    3.62286224332443    7.45308521808933
H         4.18421562842210   -0.61705325919881    8.75304449061579
H         7.36731912729113    1.38195276118858    6.62068637959638
H         9.06991474409829   -0.56638766012188    6.35035284366239
H         9.85115660075655   -2.75112750414339    6.59533515991767
H         8.82156000462622   -4.55902590235340    7.60666980994314
H         6.75714164414962   -4.69236316178052    8.64461653693946
H         5.15994687995537   -3.01490178995371    8.95030098145338

