78
CSD_code = TOJYUM | q = 0 | S = 0 | Stoichiometry = C24H42BMoN6OPS2 | MND = 6
Mo       -1.97249784240488    6.77934156622747   11.13555635645501
S         0.18865430416886    6.90338479239223   12.62192221987419
S        -2.38774361156073    8.97714846217573   12.48455834755795
P        -1.09820633414110    8.01826314089956   13.69732048672193
O        -2.79480470719521    5.87401152513810   12.21334265438862
B        -1.82948327197784    6.81870372015054    7.88152341115359
N        -0.88593847519973    8.04242876287738    9.80995515346087
N        -0.91330032530872    7.90033134919294    8.47389162402719
N        -3.49181684322564    7.09058995145739    9.72950114393282
N        -3.23564685589828    7.08948906712980    8.41295028287763
N        -1.31273466204192    5.30782910427734    9.80072659085104
N        -1.36482344895250    5.48940679462579    8.47164019163205
C        -1.92942767186913    7.01840214888888   15.07058386727653
C        -1.52652945499680    5.55278626556740   15.00172038986356
C        -3.43996226981847    7.18804476369666   15.01483894800417
C        -0.14669298028502    9.28799888416605   14.69428030335224
C         0.79309733247339   10.05784579685916   13.77906729976761
C        -1.12239732216589   10.22447457343003   15.39256845321572
C        -0.03505288053046    9.03170254475459   10.07522112942844
C         0.50028209297698    9.53250717870516    8.89901801973047
C        -0.08656047285791    8.78240964860965    7.88897632249738
C         0.14511685773554    8.84282359614011    6.41360263261199
C         0.64756210430133   10.22079810725962    5.98685416038403
C         1.15003082750289    7.75567850747420    6.01579844548483
C        -4.37699181602852    7.28412138727324    7.72988897662761
C        -5.40423236270355    7.40045200112263    8.63624411365857
C        -4.80214802574800    7.27065479699937    9.89485227060375
C        -5.45080985376443    7.30707206412713   11.23946094611649
C        -6.58294257493947    6.28066357953422   11.31318704942483
C        -5.96407654013129    8.71641629512661   11.54283838318286
C        -0.99199843949945    4.36030461029899    7.84585015856128
C        -0.70440468082048    3.41437751615814    8.80171322689932
C        -0.91745045373009    4.05496687988108   10.02961515735210
C        -0.79445424568052    3.50062717267024   11.40950615407962
C        -2.11864969506960    2.83889524602013   11.80557915176537
C         0.36736603707653    2.51508456269516   11.51644803408660
H        -1.53885960340517    7.45433461444151   16.00010326275762
H        -0.44358303029042    5.44113714201726   15.03681561581715
H        -1.89628333684135    5.11616629059501   14.07315846742403
H        -1.96196234463632    5.01122110601818   15.83988384152763
H        -3.72108311657334    8.23988097375168   15.01420855556735
H        -3.90226269914237    6.69931042371573   15.87108540762094
H        -3.81953659165397    6.72636206306448   14.10332908728630
H         0.44040417645110    8.71951448449310   15.42658899235259
H         1.45358348367259    9.37252640309801   13.24759465573621
H         1.40547763140986   10.74785437566884   14.35736747464673
H         0.21574836292850   10.63643450267277   13.05757222686415
H        -1.75914238844495    9.69280517562285   16.09668136263479
H        -1.75781296760720   10.70801341703061   14.65149693584030
H        -0.57747993174001   10.99358317681201   15.93781093292388
H         0.16435452724062    9.34812499554624   11.08342857028177
H         1.20999931208507   10.32697942608359    8.80143375371352
H        -0.80411548404580    8.64317785849106    5.90728269638554
H         0.71756576202712   10.27014912800856    4.90281942057595
H         1.63397865092994   10.41504908786759    6.40028491503428
H        -0.03221605472724   10.99915064807731    6.32511965621984
H         1.32013377773243    7.77712270229797    4.94196136479455
H         0.77690957546297    6.77262891534575    6.29230019314412
H         2.09960739279576    7.91972560283341    6.52075065597850
H        -4.38079521410010    7.33530389734850    6.65986299616965
H        -6.44166126141298    7.55993826778850    8.42645749329341
H        -4.68575072152964    7.04010275074875   11.97612106439217
H        -7.01630422076768    6.27473435452870   12.31036286332551
H        -6.20117112605730    5.28578904369494   11.09580166692870
H        -7.36648592891167    6.51885728474532   10.59723519336286
H        -6.43575000721281    8.73824813701474   12.52218098843137
H        -6.69332964777151    9.02673281737415   10.79736463341262
H        -5.13695145804672    9.42291129134501   11.54305906600488
H        -0.94816843654161    4.30698427201585    6.77657769195027
H        -0.38039129798079    2.40751068588901    8.63990137472009
H        -0.61603109371875    4.34559092516632   12.08559568562533
H        -2.04535820298306    2.42279914661959   12.80751205437859
H        -2.36897112680072    2.03983024666311   11.11045410368241
H        -2.91273261806900    3.58487978984709   11.79101376361708
H         0.49224429202278    2.20119276442306   12.54972253230526
H         1.29224023770898    2.97926254214086   11.18310321417222
H         0.18031278153020    1.63144889617902   10.91078363617379
H        -1.82080149075834    6.78999400891246    6.70140987602124

