85
CSD_code = TOJZOH | q = 0 | S = 0 | Stoichiometry = C27H42B10BrNO2PRh | MND = 7
Rh        2.61438074795845    0.73173788921040    3.90413007875076
Br        2.47395740578368    0.57380165259868    1.30994344351592
P         3.67014009246528    2.71980409279170    3.53666434800143
N         0.60481592112274   -1.37662305257039    3.05868609726476
C         1.34754565886419   -1.12354747143445    4.33363203336754
B         2.97738540040556   -1.33872312318002    4.51780984150809
B         3.63688559892775   -0.02026474389435    5.68489109036125
B         2.28993648571053    1.01372088917171    6.07784585928959
B         0.90210627318438    0.31650714567519    5.14548780154483
B         1.83101203828895   -2.34206098079540    5.43949702519823
B         3.26844074101486   -1.67142857894982    6.20879807435950
B         2.76114551457665   -0.26092611665081    7.20337969279519
B         1.03115292112362    0.01519189025128    6.85881376440652
B         0.48294952941531   -1.29913411554877    5.79310268084982
B         1.67946747985471   -1.63939128786178    7.05265913907158
C         0.36342152047046   -2.70176585381730    2.39439971428103
C        -0.31872777281948   -2.33476133663578    1.07241643114381
C        -0.58849710670327   -3.54934553941611    3.23154657227678
C         1.67949690024717   -3.41021799468100    2.10068203687085
C        -0.23776180141847    1.29910916989630    4.45023072099662
C        -1.55939279850129    0.62760122573659    4.42013005734495
C        -3.64180421599627    0.43773974242043    5.54114029550556
C        -3.60417745023267   -0.35235751881744    6.84081708069049
O        -1.84129827978080   -0.29048018203427    3.65852040445292
O        -2.39320084401122    1.09839160719226    5.33513643996423
C         4.16347171661159    3.95609969128955    4.80016306320403
C         4.89655871479322    3.49588928486402    5.88939008698883
C         5.34464544112863    4.37480340644316    6.85670160867591
C         5.06720824149144    5.72796166083781    6.74719305898449
C         4.34264628065486    6.19409096069590    5.66421848818182
C         3.89308846969680    5.31519706550528    4.69363038912218
C         2.68484314356499    3.75799025494704    2.40145491749557
C         1.46429517614076    4.21920466810779    2.89195155664552
C         0.60754669909228    4.93597757682993    2.07933798645857
C         0.95731662347649    5.18929269811820    0.76196703218148
C         2.16120022974603    4.72049625674108    0.26456476228876
C         3.02244791079413    4.00327138284952    1.07718707692002
C         5.29037095834334    2.56120477927252    2.70923786025231
C         6.01796560712681    3.68315009358518    2.32324903699579
C         7.24702750764684    3.53242911863649    1.70949584488888
C         7.76247230121376    2.26500315529970    1.48515869214993
C         7.04951547804827    1.14662247912513    1.88180340623633
C         5.81779364622136    1.29425042837181    2.49476617376725
H         1.08813013715858   -0.80408345887229    2.32512465636142
H        -0.35138905658304   -0.97167562394690    3.18151198121048
H         3.63291678030458   -1.77404517454941    3.63567865836764
H         4.77865756414539    0.28587171934203    5.60619725317750
H         2.32905590027415    2.16393055312683    6.35883765906020
H         1.70946436874961   -3.47567608801990    5.15476191287338
H         4.15987540673718   -2.37005520521218    6.53841153851808
H         3.27544345979685    0.00555361087609    8.22977208534354
H         0.29344540484555    0.51776863145392    7.62923492117707
H        -0.62934195616905   -1.67876131220476    5.70641591844976
H         1.42350756034255   -2.32409684884219    7.97710702667348
H        -1.24562677127631   -1.79528459539028    1.25435000121466
H        -0.55627174609578   -3.23363288734519    0.51125332930183
H         0.33323034786203   -1.71573288431645    0.45940382317198
H        -1.50059489848025   -2.99308560377451    3.43564101750119
H        -0.14275755097997   -3.84469451042178    4.17471932963465
H        -0.85388059003126   -4.44902112125114    2.68295467147736
H         2.17727156611166   -3.72823330514280    3.00986201909711
H         2.34260371868420   -2.75100457018825    1.54560861325674
H         1.48906397551955   -4.28954804309909    1.49163841962795
H        -0.33036809284244    2.21469472655633    5.03196170616283
H         0.03853524637330    1.56452403322808    3.42111596857052
H        -3.84181094516584   -0.21852945903803    4.68804995598303
H        -4.39949761454046    1.22430376598437    5.58369373417932
H        -4.56873797136703   -0.82187075998291    7.01150817005873
H        -3.37615898462048    0.30943084319180    7.67187213948198
H        -2.83662823283254   -1.12106504857324    6.79354499287433
H         5.10265011442871    2.44072238578579    5.97777049173423
H         5.90917278420411    4.00420016198302    7.69919040286865
H         5.41399270065050    6.41695948353007    7.50309209560519
H         4.12549457882014    7.24852972394191    5.57081617930455
H         3.32975561360179    5.69707105649812    3.85399688944608
H         1.20174914679319    4.01131207213802    3.92185668225814
H        -0.33573721634864    5.29160708337840    2.46819165615767
H         0.28687217411098    5.74359432353009    0.12200374607446
H         2.42898176311423    4.90463268088817   -0.76540371812944
H         3.94914581059464    3.62022242713584    0.67448082458238
H         5.61726854500391    4.67147254090773    2.50450519931866
H         7.80603770197473    4.40519261480119    1.40437177559910
H         8.72225544065642    2.15205358610863    1.00287209623153
H         7.45189904309795    0.15903810108624    1.71207729131770
H         5.25553066763627    0.42279800454756    2.80901511956476

