79
CSD_code = TOKBAW | q = 0 | S = 0 | Stoichiometry = C32H40B2NiS4 | MND = 4
Ni       -0.00020852666501   -0.00027574414073   -0.00000887279109
S         1.15755836247702   -1.42070028669191   -1.43203022972512
S         2.02114920364147    1.23118341249967    0.24479833985134
B         2.91819368958458   -1.44553664309025    0.95258636275503
C         3.89329520947231   -3.44211113739733    2.32419395639577
C         4.91305910321953   -4.22894176495563    2.82669892244169
C         6.23325336323647   -3.90526234587530    2.56448042491561
C         6.51410039591730   -2.79196436936005    1.79277151740370
C         5.48364467096019   -2.01399785682924    1.29413275821059
C         4.14642664146045   -2.31060377553769    1.54864223058977
C         1.96653570137930   -0.94338838375044    3.32516312956508
C         1.04507248943848   -1.07230255448056    4.34548326756068
C        -0.17661510123507   -1.68409298611547    4.10474051794092
C        -0.47138484518975   -2.12876660025429    2.82945468104254
C         0.44886409722821   -1.96498693902613    1.79737041634884
C         1.71364053721744   -1.40850579831209    2.02852819109378
C         2.47591679575302   -2.19401947241660   -0.44903755075059
C         3.39283993073051    0.09140463606464    0.58254143179964
C         2.14133950939503   -0.55987122489781   -2.68229865790182
C         1.94423859546091    2.11966358148107    1.81958434110995
H         2.86792988719438   -3.70926590074426    2.54132877514585
H         4.67986579424758   -5.09852041909854    3.42623822139919
H         7.03515025618102   -4.51490363990666    2.95688937987618
H         7.54153852409886   -2.52911949969530    1.57854511420410
H         5.73455164035425   -1.15103894660822    0.69232952582892
H         2.94008690382553   -0.52585186011425    3.54700185213223
H         1.28670138013601   -0.72569989455300    5.34139156080893
H        -0.88137560232341   -1.82963313654699    4.91221897535209
H        -1.41105029938761   -2.62736165938492    2.63397630069190
H         0.23607634938085   -2.46040518280245    0.85176236753153
H         2.10827650942229   -3.19622938635797   -0.23138053016532
H         3.32339241699848   -2.29532498140586   -1.12374107387245
H         4.02152691688344    0.12375014557745   -0.30693825454911
H         3.94921513274927    0.53893278812572    1.40179165856143
H         1.46179460658140   -0.24547975221939   -3.46747908002924
H         2.86797937901494   -1.26473287895311   -3.07729608383130
H         2.63677106515954    0.30594085615415   -2.25657240615163
H         1.18113870867063    2.88624540015811    1.73823212987510
H         2.91330522704368    2.57903250734660    1.99454242239447
H         1.69790318227420    1.42444833348946    2.61692023207820
S        -1.15800186997405    1.41965240171273    1.43234420577445
C        -2.47571323678243    2.19358992511190    0.44906667718028
B        -2.91827078165992    1.44536690076953   -0.95265377783856
C        -4.14601157548819    2.31129582380641   -1.54847919506456
C        -3.89204748717372    3.44273393917124   -2.32387166026412
C        -4.91120368980000    4.23043814321544   -2.82621272138432
C        -6.23161589450043    3.90775084762836   -2.56398882471401
C        -6.51327606627556    2.79458230065519   -1.79240379269365
C        -5.48341274036434    2.01570691945455   -1.29394350901716
H        -5.73493143443758    1.15288574453412   -0.69217299695825
H        -7.54093129281231    2.53263000724475   -1.57797563992599
H        -7.03304578834904    4.51812130770090   -2.95622727325272
H        -4.67735679508300    5.09989706041550   -3.42569567333080
H        -2.86646447915674    3.70907895976724   -2.54114630663613
C        -1.71384874692742    1.40805378276083   -2.02869518314688
C        -1.96709899924341    0.94330928735565   -3.32539057194486
C        -1.04581089668649    1.07233016558419   -4.34585569762768
C         0.17614440362853    1.68359011408011   -4.10511825503744
C         0.47131187079607    2.12771733025135   -2.82973169956053
C        -0.44886472322177    1.96403605139358   -1.79756536636425
H        -0.23581082345416    2.45921696303973   -0.85188777578612
H         1.41127055602285    2.62575211935645   -2.63419536135407
H         0.88081804448304    1.82913240705941   -4.91267689675948
H        -1.28777706032912    0.72627467073954   -5.34186905929578
H        -2.94082440447140    0.52612067284886   -3.54716412047105
C        -3.39332524718521   -0.09145678736050   -0.58279149473658
S        -2.02183915751822   -1.23148064196097   -0.24463938019587
C        -1.94490958502391   -2.12056066768862   -1.81909738745583
H        -1.18212627716468   -2.88741843535897   -1.73717706063307
H        -2.91409584681670   -2.57961858021081   -1.99409363723593
H        -1.69803551520860   -1.42578393334020   -2.61664476447405
H        -4.02225373036638   -0.12373361777143    0.30651160545366
H        -3.94951004254782   -0.53892682239411   -1.40220180191233
H        -2.10748275565036    3.19560442201182    0.23142854871810
H        -3.32327443402662    2.29544453009603    1.12359521310428
C        -2.14232433477099    0.55816798183765    2.68175470101696
H        -1.46331157073016    0.24509632753750    3.46794066568910
H        -2.87040046227314    1.26223407094679    3.07550802041532
H        -2.63603493143347   -0.30853833140668    2.25586098258890

