75
CSD_code = TOKDUU | q = 0 | S = 0 | Stoichiometry = C34H32N6NiS2 | MND = 4
Ni       15.29495989496890    4.83885978601623   11.35506055851922
S        17.25680091932655    4.40308374827626   10.44801835368083
C        17.05081527808739    5.65622983018855    9.25407013166067
N        16.23830827087748    6.65998012094056    9.41807034605793
N        15.54704082066451    6.60373267013435   10.57721370173698
C        14.98286174956620    7.68683975352356   11.00834773086250
C        14.91028419595278    8.91758950003192   10.15345551740760
H        14.33150877490675    8.65815609152582    9.25951815484621
H        15.91764836416262    9.16827587651798    9.81057097907027
C        14.26994852631501   10.09068869387981   10.88707570207261
H        14.01791159790225   10.87702979092019   10.17364532757021
H        14.97820848625899   10.50376733080435   11.60890576833212
C        13.01883483991467    9.63066429913401   11.63590758362401
H        12.51948719256512   10.47793967941712   12.10922241943106
H        12.31552920622555    9.18434396612253   10.92588426942883
C        13.41829985772999    8.62383774007606   12.67246714626145
C        12.86169869763800    8.59557392385708   13.93987136124092
H        12.07173946586138    9.29057072159041   14.18796582528140
C        13.31073889016878    7.69444576886038   14.89188208187003
H        12.86140572935157    7.67762860173741   15.87331244082332
C        14.35695628067526    6.83532102391327   14.59553742936916
H        14.73730560120754    6.16793973521882   15.35434549267193
C        14.91467030853120    6.83838971156025   13.33174322773389
H        15.78178029593007    6.19702664533654   13.11125348335879
C        14.42414692297709    7.70432821294517   12.34633189274103
N        17.84806613998956    5.52653795862117    8.16916756609170
H        18.48786150807139    4.74367760237591    8.21993181357675
C        17.86537099324210    6.24931654834244    6.98469423029944
C        16.99396319485611    7.30560805955792    6.73091102800125
H        16.28197487440056    7.58683018982553    7.48785227883003
C        17.05059463024500    7.96699307700217    5.51864698392304
H        16.36853185223860    8.78320078461905    5.33001213027771
C        17.96736871651701    7.59506822778475    4.54959952457164
H        18.00606639612729    8.11777755998817    3.60595153282511
C        18.83645102008560    6.54582081370705    4.80080631262059
H        19.55582330390063    6.24678611191476    4.05278231599413
C        18.78777778141404    5.87517134387928    6.00669273078457
H        19.46507070803553    5.05453738095646    6.19883043374936
S        15.11593480634940    3.26936458368314   12.89227583856916
C        13.61552946350277    3.93257687899892   13.48145879009977
N        12.85148481626235    4.70015912880736   12.75917990208786
N        13.36101162122102    4.96138912620299   11.53564801393183
C        12.56161356016880    5.41009355630097   10.62081424213734
C        11.16105979538670    5.83335422689300   10.95284272870449
H        11.23303883706726    6.66196887183511   11.66672415038605
H        10.65994616565961    5.01430769119083   11.47554196481407
C        10.37940064205912    6.25707657834778    9.71434525999382
H        10.09143165057326    5.37300992197964    9.14091767844895
H         9.46773976886289    6.77617016410471   10.01474029522013
C        11.23756143106445    7.15914463835982    8.82693501635749
H        10.66222164088572    7.51953697260802    7.97232682129924
H        11.56016713906109    8.03227374273968    9.40276480035223
C        12.42861957010520    6.38074203435727    8.35456447328934
C        12.92251800212147    6.48042239052932    7.06497613332526
H        12.47056931179013    7.18064919304486    6.37647092012080
C        13.98107763710654    5.68965986958301    6.64768927435048
H        14.36229487028795    5.78488715587151    5.64221869607826
C        14.53151891013527    4.75507356942657    7.51026218660151
H        15.32388846667786    4.10666455302520    7.16741740562553
C        14.06187320922746    4.65136960132656    8.80520268735127
H        14.45906292821210    3.87242356364049    9.47401004955923
C        13.03368759595227    5.49078678175157    9.25208276541367
N        13.28599173226536    3.53525404399273   14.73164289598254
H        13.93387066567517    2.87105808977393   15.13647401834998
C        12.25025011807332    3.95231784532511   15.55561529485500
C        11.32050782362233    4.91582843125280   15.17262398115526
H        11.39564423867046    5.35099751575585   14.19080196071600
C        10.32775068645838    5.30108454355858   16.05372071268752
H         9.61257290149620    6.05099189628761   15.74849426297010
C        10.24184910441719    4.73826224570598   17.31614255554625
H         9.46249939853579    5.04363965380142   17.99776682130467
C        11.16480524621546    3.77840304438845   17.69851780547356
H        11.10815348394028    3.33262766355306   18.68061342540133
C        12.16308657916430    3.38729205422299   16.82860846193095
H        12.88405489493437    2.64026929670403   17.13071190234170

