54
CSD_code = TOKFII | q = 0 | S = 0 | Stoichiometry = C27H22Cl2N2Pd | MND = 4
Pd       11.51949379822412    4.62982194407689    4.72547661826618
Cl       13.48699480750305    3.62661545439427    4.46281129674795
Cl       12.37023096913108    6.65390445285869    4.37203978926644
N        10.67173670604449    2.81726309641185    4.95652152410897
N         9.69233361631234    5.46373364224892    4.87624385609244
C         9.34419244533035    5.00564124604252    0.98417984857465
C         9.73459022618873    6.28742325186823    1.35381205243047
C         9.46745186636974    7.35352372765771    0.51659629586545
C         8.82175652920637    7.13097835750525   -0.68738973789364
C         8.47380442615452    5.84652489576315   -1.07566053074479
C         8.74336032361312    4.76123767812535   -0.25661612192848
C         8.40965102279472    3.31855733464980   -0.60859658432516
C         9.59152496796382    2.45730546097459   -0.18664063445922
C        10.10477062535714    1.41373922318319   -0.94089491743841
C        11.19400233859186    0.68347600863589   -0.49154908075180
C        11.80668128324008    0.99716604877493    0.70939064725335
C        11.30364374777959    2.02554235706350    1.48286304236886
C        10.18333904287982    2.72721182886552    1.05322171040854
C         9.64032795506093    3.84545453838513    1.82621793673596
C         9.45787344874029    3.81896138182496    3.16312106721565
C         9.76546875400598    2.62399857604366    3.99127621408954
C         9.16538106189568    1.38725237153484    3.79389681896126
C         9.53233512548658    0.33242131485539    4.61376951200738
C        10.47998299730233    0.54665301384887    5.60486432638899
C        11.03154487304075    1.80860043742655    5.74267800834163
C         8.89827699058405    4.96934834332562    3.91948464244667
C         7.64252625015987    5.50601467314766    3.66720861210048
C         7.21854520052556    6.58782014452058    4.42186146680060
C         8.05737758892611    7.09480636750341    5.40446411322501
C         9.29396257061523    6.50446433186899    5.59939524197823
C         7.17582503506453    2.88889062323202    0.21138853026236
C         8.07194016241214    3.14925633598546   -2.09039042480251
H        10.29394084131519    6.43547476919721    2.27011506943330
H         9.77412681858811    8.34911450499997    0.79760043626501
H         8.60680242344268    7.95982543309589   -1.34562754301720
H         8.00186930446434    5.70912098042759   -2.03510028557755
H         9.67479992985974    1.16106884964312   -1.89662487901935
H        11.57958276986266   -0.12124776281978   -1.09999605800101
H        12.67951579198834    0.45398302155496    1.03701093951596
H        11.80784260456082    2.32439898705264    2.39431800275126
H         8.44399442560992    1.25730673940912    3.00274019908883
H         9.09037458236791   -0.64257184175644    4.47702682585931
H        10.79485912816165   -0.25359235265402    6.25471492911520
H        11.79204756987777    2.02509602265802    6.48319530402652
H         7.02633503851951    5.09318891293895    2.88420745730699
H         6.25165584979284    7.03188636606668    4.24147599929061
H         7.76290035947656    7.94076619503522    6.00403595059239
H         9.99741100921445    6.87481707584490    6.33530610651710
H         6.32013637100155    3.50751146256482   -0.05229052943771
H         7.36214303450749    2.99114406316429    1.27800979932054
H         6.93227377035606    1.84948316007617   -0.00017297086398
H         7.20885452780409    3.75627891954721   -2.35185699482715
H         7.81204080949450    2.11509446214165   -2.30185483603316
H         8.91276628323567    3.43924356920709   -2.71587806190355

