95
CSD_code = TOKGAE | q = 0 | S = 0 | Stoichiometry = C46H44O2Si2Zr | MND = 12
Zr        2.14965911315372    8.38619800743514    5.76474562792429
Si        4.52064351481402   11.30578065984572    1.48505331044826
Si        5.03455677822040    5.75930000093003    2.04373976383132
O         2.40487449528281   10.06223190720357    4.90209336897242
O         2.69278127087724    6.60055882904309    5.41671222748927
C         2.83489808683783   10.98044449608846    3.97354569851338
C         3.75434844988452   10.34810845983984    2.92375900928928
C         3.89874020321008    9.04748171399686    3.03225023113191
C         3.80787762410398    7.84220079926717    3.42815680483835
C         3.98996054649638    6.53316211920989    3.42101176379889
C         3.38490697622255    5.75658630867748    4.56295953763118
C         0.02366592970568    7.98932532684704    4.43528381967437
H         0.01455793597354    7.80506710295874    3.36529037940751
C         0.00669772296480    6.99854836864874    5.44646069739069
H         0.02652671029753    5.92748636823975    5.29143275311670
C        -0.15153361252354    7.64332793513216    6.68491180806266
H        -0.31282582307208    7.14909049902377    7.63524034292608
C        -0.28210349842141    9.03143841804789    6.44173746139886
H        -0.55965350636353    9.78239927918665    7.17097140236501
C        -0.20236303328439    9.23985761044392    5.05630616617181
H        -0.37724751328011   10.18090823434305    4.55322447726995
C         4.21014534234000    8.89544636508365    7.12415219193670
H         5.17674855176080    9.07424522456006    6.66149149774044
C         3.77458448912217    7.66546030638854    7.67005310544431
H         4.32477091053559    6.73467190373581    7.67239147907918
C         2.54769526508022    7.88208144367852    8.31487822770911
H         2.01525804725202    7.15065244003119    8.90957774302709
C         2.23780385122502    9.25774587340121    8.21605928638503
H         1.43800775157330    9.76409500934203    8.74232563376486
C         3.27231245659784    9.88824452633406    7.50423985011294
H         3.37571828149021   10.95574354557929    7.35861808919533
C         1.69224320423255   11.65009222981641    3.21894704178947
C         0.75298820562613   11.06079189300710    2.40103104607324
H         0.77883814967632    9.99516758068988    2.21964077547929
C        -0.21438443499966   11.86813653994182    1.81608718188263
H        -0.96371132181346   11.42717496845023    1.17534602209470
C        -0.22576698107381   13.23637544451125    2.04243431460878
H        -0.98533774036994   13.84626178272804    1.57527288541198
C         0.72627522008471   13.83269320988984    2.85513242673004
H         0.71577875668079   14.89981627228711    3.02061374562842
C         1.68933452217723   13.03199757313015    3.44695877688148
C         2.81046864434967   13.36250345412472    4.31534300039966
C         3.24244299311821   14.57805102980747    4.81916801984301
H         2.70664358514163   15.48972360027214    4.59957047123609
C         4.38110185618193   14.60283027455690    5.60970882712723
H         4.73047729699527   15.54214351085827    6.01306419608836
C         5.08190401688576   13.43861928287509    5.88388533779036
H         5.97121213795419   13.48248257960892    6.49554146785513
C         4.65465230552182   12.21656969803130    5.37925289390028
H         5.20512532332076   11.30894340221445    5.58047039861926
C         3.51444407703940   12.18596160719769    4.60693645874866
C         2.50245366011514    4.61615112257070    4.07047823837243
C         1.39713567486441    4.68844295866490    3.25252355443945
H         1.08069418130473    5.63666332463934    2.84133329974022
C         0.70871451903651    3.51592069548013    2.96448851527989
H        -0.16144873071249    3.54996556999962    2.32534786101685
C         1.12689772397687    2.30238637267217    3.48796785548974
H         0.57523305258335    1.40350574737243    3.25365645831437
C         2.24850143931902    2.22507754121550    4.30021508850794
H         2.57667915217417    1.27449402278316    4.69357193664674
C         2.93977257082304    3.38944867216803    4.58852033134509
C         4.16686966696137    3.61411049493207    5.34095009047010
C         5.01482868287770    2.73044714556369    5.98709596069179
H         4.78445176203671    1.67650357368468    6.03436457996407
C         6.17424725723469    3.22524996231685    6.56546709598092
H         6.84632232020145    2.54966568762102    7.07447276732371
C         6.49017351832454    4.57286005674569    6.48851650633981
H         7.40647491764715    4.93229514767665    6.93361644733756
C         5.64197581329295    5.46529393254363    5.84344555119365
H         5.88826143617693    6.51578839992126    5.76846141856319
C         4.47865954811535    4.97911264601199    5.28909135514197
C         5.92230520362582   10.20558749183341    0.79886327012104
H         6.72487642676001   10.09003447042414    1.52076915244633
H         6.35187177544763   10.64133440526874   -0.09746626746021
H         5.56647771741939    9.21235951056435    0.54529284514143
C         3.21601704743964   11.59269135724045    0.11838700553369
H         2.70332974373236   10.67221479243309   -0.14431313518249
H         3.68252466125337   11.97753744491042   -0.78347713607358
H         2.46239195330682   12.30897615195549    0.43087002024823
C         5.26332704762489   12.98789746851119    1.99048031746386
H         4.49190259100557   13.71219325907183    2.23024320203064
H         5.85531676370630   13.39626291306269    1.17656122875133
H         5.91031800367088   12.90365746042345    2.85810336717300
C         6.79749703298616    6.47460973744959    2.21647516990583
H         6.77044199004138    7.55540282316186    2.31422230738462
H         7.40759401755068    6.23515111647553    1.35118576730903
H         7.29963281574994    6.07496952629495    3.09302567599384
C         4.23332852504314    6.30888597217102    0.39774966229398
H         3.31767953221195    5.75834873751397    0.20189719356216
H         4.90061990983076    6.14209000947093   -0.44184359820132
H         3.98288232716327    7.36545244643663    0.41966873238574
C         5.12409825561158    3.85719281966178    2.08451113724106
H         5.59633288176892    3.49600414400081    2.99230206979943
H         5.70846072797293    3.49443415649684    1.24426271462108
H         4.14073174792671    3.40250369401844    2.02126534111709

