57
CSD_code = TOKGOR | q = 1 | S = 0 | Stoichiometry = C25H24N7Pt(1+) | MND = 4
N         3.44082238838468   -0.20906856947224    5.48021758196269
C         2.75367841227938   -1.26102230767057    5.94609006326508
N         3.15890824472909   -2.52749371280462    5.87802420478493
C         4.10935984120847   -2.98556479626810    5.10138995673040
C         4.27425583061615   -4.47768611905371    5.13851923301517
H         5.09710058272720   -4.81183955646475    4.51212772784141
H         3.35287966302061   -4.95025216923907    4.80569755479659
H         4.44879986401731   -4.79163975567245    6.16462529053686
N         4.85479931423348   -2.26579385295531    4.28428152624183
H         5.45568676638111   -2.81949745819151    3.67699382150059
Pt        5.16396478192488   -0.32117961611749    4.44832802179752
N         5.59014073011762    1.66472522474074    4.60473740664254
C         5.77188837428190    2.32947414058454    3.45988418311135
C         5.69328930655007    3.72206047303733    3.40294415152815
H         5.79614106265777    4.23067283988581    2.45741706286168
C         5.49259277137780    4.42765909317193    4.57220675277261
H         5.42243710463069    5.50334849581161    4.55256588109680
C         5.41509135593846    3.73219078127121    5.77334300652515
H         5.30599149612738    4.24976327104651    6.71089065667541
C         5.45691658028055    2.35439300857815    5.74080533381417
H         5.38137905014639    1.76724590489957    6.64654136067617
N         6.79913154214225   -0.40481133329750    3.27241340105401
C         6.85428492851240    0.47399953067894    2.26202923516620
C         7.70513545422943    0.27887532404288    1.17190390200060
H         7.70095848117877    0.98250956273025    0.35446680392516
C         8.55072691060742   -0.81248422180398    1.16333716192204
H         9.21342778274534   -0.98150053427490    0.33001356223036
C         8.55075783474935   -1.66900516507925    2.25861508618860
H         9.22384103625293   -2.50805651937819    2.30977691108364
C         7.65587516569277   -1.43265437944294    3.28104593153628
H         7.62063161285786   -2.07426527142653    4.15194301862843
N         6.05538421523796    1.60801091924749    2.30811580640375
H         6.09094384127358    2.17028886889415    1.46720967299205
C         2.86990312803449    1.08226269112049    5.51092863252896
C         2.58595049073001    1.74575597546420    6.70653669621931
H         2.78555213957577    1.25609279118338    7.64921828612956
C         2.07591840698543    3.03147758018918    6.68080722097259
H         1.86087677770944    3.53679513428692    7.60974766550070
C         1.84488727108382    3.67020878700092    5.47372394115211
H         1.44892119732086    4.67327533856199    5.46001344108941
C         2.11649523204902    3.01427722806524    4.28337394617366
H         1.92647454715763    3.50479493829778    3.34076068144484
C         2.61798291127921    1.72674672013476    4.29849861175615
H         2.81851877197800    1.19215378405209    3.37560344815548
N         1.54359747972280   -1.04341427575728    6.51143635997348
H         1.21719208760613   -0.08477341746359    6.47491076324148
C         0.60193325935699   -1.92209709855256    7.06174788756257
C         0.83828569128069   -3.26885088081073    7.31255521911517
H         1.79540405647715   -3.69041881569260    7.06279637007507
C        -0.15821116957830   -4.04640552814305    7.87557798223404
H         0.03373052004748   -5.09135812437054    8.06661818067322
C        -1.38938478295567   -3.50135104471141    8.19659523884649
H        -2.16034440978367   -4.11594455380981    8.63426367834917
C        -1.62423224462833   -2.15817715433038    7.95345053282827
H        -2.57862323026260   -1.71954799491426    8.20166446187113
C        -0.63674844049184   -1.37254874332503    7.39184031437896
H        -0.82430201777957   -0.32345543635492    7.20492916849358

