94
CSD_code = TOKGIK | q = 0 | S = 0 | Stoichiometry = C45H42CuN2P3S | MND = 4
Cu        0.60712705660627   14.51832263902991   14.95779617176917
S        -0.33739484995024   12.46395392922549   15.60301059974401
P         1.23545412891934   15.01499319915809   17.96996597939490
P         2.70735921264712   15.42647845734898   15.49861566266088
P        -0.12780503813291   16.43906891948802   15.99646240264000
N        -0.69604977882110   11.27438568999902   13.27981387198425
N         0.28856572839524   13.43579704872848   13.30063334006769
C         2.76753701301587   18.85913044207586   17.82601603338214
H         3.04277180948555   19.50185897475139   16.99131072490909
H         3.65372823787352   18.69365898482702   18.43620893725780
H         2.02988347204526   19.38124260367116   18.43305187696836
C         2.20608700262472   17.52238661381677   17.32019285249979
C         1.70111680888120   16.71207642589874   18.51300499894744
H         0.78516763869839   17.17619158509105   18.89383015288425
H         2.44596909153806   16.69137982014995   19.31277261373862
C         2.73156025171666   13.99203121212846   18.27449269273455
C         2.82497210345599   12.85057485071493   17.48346823421547
H         2.05689583885453   12.66592317302867   16.74144864472694
C         3.87149480728971   11.96312988329683   17.64838042803889
H         3.93089547722538   11.07863065959785   17.03173224217905
C         4.84818352686681   12.21967760210179   18.59510273207111
H         5.67719356546066   11.53829969875762   18.71906171253277
C         4.75671412643450   13.34889548554423   19.39210383444565
H         5.51143256532851   13.54298506261026   20.14160417720198
C         3.69736280819367   14.22652442819832   19.24533337507324
H         3.62991457763292   15.08473114634100   19.90007770770199
C         0.33659947041379   14.40378716574028   19.44521245648712
C        -0.13927826659417   13.09966013908380   19.31715887630563
H         0.04785759430757   12.56003273624166   18.39791239519229
C        -0.86030256788133   12.51244478418905   20.33668666017689
H        -1.22662995639586   11.50249711387447   20.22519417726305
C        -1.12161595431345   13.22472234926330   21.49693411213926
H        -1.69134693304191   12.77245904599515   22.29581034267555
C        -0.65337689302698   14.51968076946665   21.62848598781779
H        -0.85569547152280   15.07798091920722   22.53189956282108
C         0.07474894278009   15.11152224204714   20.61005099404105
H         0.42676468900423   16.12374149737930   20.74148163564413
C         3.33431698458845   16.76209630929538   16.61534881042421
H         3.95955026498378   16.28333354924618   17.37521887213486
H         3.94931427075159   17.44966502338239   16.02379994218162
C         4.16691621379241   14.36014476064151   15.27033083184780
C         5.40331270967151   14.45130774018245   15.89445869664502
H         5.62042856131968   15.24874799267955   16.58990236643706
C         6.37866041201784   13.50516482546203   15.62825476142966
H         7.33888937189870   13.57849668047407   16.11858596684037
C         6.13265157893086   12.46997835653478   14.74380787644439
H         6.89874356102079   11.73459540765802   14.54671973846497
C         4.90020370896428   12.37482892077414   14.11486938080212
H         4.70285553427726   11.56574553912411   13.42666448125216
C         3.92474001248865   13.31191101500926   14.38292055538246
H         2.94505336736858   13.24686294208386   13.91883924351616
C         2.86365692931714   16.32071026878609   13.89747650441263
C         1.73672259998424   16.56942952608813   13.12571573049516
H         0.77214535087843   16.21023992353072   13.46709515923276
C         1.83741038222652   17.26113233811112   11.93104039303238
H         0.94845891466403   17.45462233764246   11.34781582191932
C         3.07325259377320   17.70161664412894   11.48964729141441
H         3.15672615088851   18.23890729166662   10.55645984631356
C         4.20630157284927   17.44546581040487   12.24635646993405
H         5.17380170495110   17.77878413358219   11.89948002801988
C         4.10431009967454   16.76211805422208   13.44332573285998
H         4.99399477972824   16.55547605620052   14.02357189099478
C         1.04834092965906   17.81693689523089   16.36326706635557
H         1.45268049425132   18.12179366012574   15.38991623404809
H         0.44954510719443   18.64491524399211   16.75969012774430
C        -1.19391480720150   17.28289163300325   14.75791277649555
C        -2.14095761011952   16.41630458329830   14.21109710316405
H        -2.15874331623430   15.38828989816123   14.56001394601241
C        -3.02444053470324   16.84841835644451   13.24397165993990
H        -3.75402564216958   16.16728785021214   12.83071485279035
C        -2.96385790044815   18.16039948670144   12.79814078012556
H        -3.64735102234451   18.50612890136385   12.03655160411487
C        -2.02129633945163   19.02435000727355   13.32679114040617
H        -1.97036307107449   20.04568324879596   12.97637941047892
C        -1.13730351006456   18.59355153057625   14.30288186715741
H        -0.40948127952876   19.28980095595533   14.69253770127530
C        -1.37390420230985   16.47968202490557   17.33328855124136
C        -1.92030042734123   15.24375651770956   17.66368306259854
H        -1.56139702545553   14.35921774444123   17.14991325224823
C        -2.90022603360515   15.15081842181065   18.63430800491236
H        -3.31582975745506   14.18750346740594   18.88873880964899
C        -3.33260929008037   16.29305083503406   19.28609251732510
H        -4.08654863853317   16.22504135248528   20.05657739665054
C        -2.80594217989871   17.52876350663381   18.94467944166057
H        -3.15649233748254   18.42155378740448   19.44339105103836
C        -1.83833665682481   17.62899800505842   17.96171395004220
H        -1.45673012751738   18.60358241574577   17.68714488032980
C        -0.25593929772077   12.35549502012943   13.92877948579541
C        -0.58472983013427   11.26312687180889   11.97476740276273
H        -0.95190140559016   10.37115502194609   11.48118970809348
C        -0.03042505648797   12.31845098574123   11.24657300144152
H         0.05719957800704   12.28899291307317   10.17396409396752
C         0.39804356046365   13.40724474807928   11.98286983473834
H         0.84455816317244   14.27967536446389   11.51893369262226

