64
CSD_code = TOKHAE | q = 1 | S = 0 | Stoichiometry = C30H26N7Pt(1+) | MND = 4
N         2.27850314593557   16.00223502294525    2.21049280087749
H         2.70502019896004   16.88917395130967    2.44700244048773
C         1.00692621099129   16.11384418321090    1.66492909995251
N         0.40097796560144   15.00993720358986    1.21795653735226
C        -0.87355299775116   15.08403763469194    0.82529858374053
H        -1.33701257308077   14.14886589539324    0.54003615493155
C        -1.57005877824622   16.27307740842979    0.78107999401943
H        -2.59683503280697   16.28898813112195    0.45816666743065
C        -0.90988776397939   17.44307179633840    1.13845891260920
H        -1.40781319173452   18.39739927799560    1.07747152985322
C         0.38668765038053   17.36311552705907    1.60510924307959
H         0.91681723848430   18.24534572827235    1.92747199885068
C         2.71562816835857   14.94091486018875    2.99097480096846
N         2.30887837375835   13.69928976742228    2.69230261541567
C         2.63778908952641   12.69676038131420    3.51551553264133
H         2.22881724162246   11.72480350895658    3.27126199120893
C         3.43735330357575   12.87255967637670    4.62547496270529
H         3.67392230452104   12.03590429867794    5.26085016018207
C         3.93659529253310   14.14259477266378    4.89159402148819
H         4.58894188920554   14.31468073675217    5.73245100006386
C         3.55971133427095   15.19040714149267    4.07522859817798
H         3.90144053127199   16.19470516452360    4.27006207666030
Pt        1.59713023558971   13.40617202651956    0.83000751083528
N         1.00661153546834   13.21307132485608   -1.08283323812303
C         1.27094883604953   12.15512058894953   -1.86290790737172
N         1.86194128759809   11.03611603559170   -1.45586122902223
C         2.55540284770867   10.89487888001633   -0.34927382622631
N         2.75687938846676   11.83430014448762    0.56004473393654
H         3.40128620633951   11.55681451315919    1.29722522290702
C         0.46312205391916   14.39012503630504   -1.64243231588088
C        -0.82359611264480   14.43533000866534   -2.18362195570528
H        -1.43077118706652   13.54082647190432   -2.19442511544076
C        -1.32669049084614   15.62636035761648   -2.67596568708967
H        -2.32239052932753   15.65184832197036   -3.09143411794688
C        -0.56264760696565   16.78072772733941   -2.63408419733912
H        -0.96046841688886   17.70644909870273   -3.01864608789546
C         0.71692476887590   16.74171945954095   -2.10301583581230
H         1.31875570612048   17.63748344611272   -2.07817776957454
C         1.23160644056424   15.55502074664728   -1.61698183697416
H         2.23817870787810   15.50327068690634   -1.21483189003818
N         0.92219595999983   12.21029741037750   -3.16965192427919
H         0.46031427596472   13.06387618994075   -3.46001416171207
C         1.07123759435719   11.28385398222139   -4.20944869635923
C         1.83502940186000   10.12520531869358   -4.12700113256324
H         2.35853738088643    9.89801573965994   -3.21546075585204
C         1.91408843366430    9.27709047658043   -5.21761101903638
H         2.50884135430921    8.37933878021877   -5.14261726749969
C         1.24859272712842    9.56925020238140   -6.39548415010480
H         1.31683416302189    8.90210241201372   -7.24043653043822
C         0.49760597844445   10.72983525630389   -6.48384933713754
H        -0.02178519523194   10.97301447525142   -7.39818088962581
C         0.40981587036684   11.58233928827996   -5.40089219951418
H        -0.17702864641546   12.48825515927232   -5.47505358853397
C         3.18422972107840    9.56597666223621   -0.18834616663619
C         4.40637361910538    9.40346656231259    0.46024976740054
H         4.94998333249597   10.26105638941199    0.83362287275843
C         4.96382570716107    8.14445424455269    0.58999835211591
H         5.91663453875631    8.02935074623692    1.08439843406764
C         4.30673585259121    7.03538910370791    0.08326071690190
H         4.74411775571345    6.05458738240127    0.18948682623355
C         3.09290401620478    7.19004757752156   -0.56703438144633
H         2.58104148846958    6.32859835577292   -0.96787986644343
C         2.53627620489577    8.44683046535314   -0.70794883158592
H         1.59252519290056    8.58122087525345   -1.21208025063240

