58
CSD_code = TOKHOQ | q = 0 | S = 0 | Stoichiometry = C24H28Cl2N2SiZr | MND = 12
Zr       -0.10436919081462    3.45948680009345    2.92711767255884
Cl        1.45561940439866    5.14787773440324    2.45879024633810
N        -2.97301680911488    1.67579749749121    2.15927808239324
Si       -0.10426306182898    0.18280833370355    2.92690785245041
C        -0.54991899369637    1.47813781575904    1.61848093519784
C        -1.78928324983062    2.19273154342198    1.57831512252433
C        -1.64174668210509    3.39242568641080    0.85366900524027
C        -0.29132416911677    3.46390007730169    0.40382016024005
C         0.40055350023244    2.28771597196480    0.89801267911696
C         1.77142914125136    2.13620119786390    0.61334260825750
C         2.40376139026155    3.08376687705273   -0.15774596181551
C         1.71711322971712    4.19529934126327   -0.67195197023698
C         0.38571047311514    4.39656888235809   -0.40114042382770
C        -3.54618127782541    0.58703504468706    1.37970820562015
C        -3.97743711294266    2.67238622417620    2.49025223147662
C         1.27999037531571   -0.98577705507730    2.32273107633524
H        -2.42485361384216    4.09196547789586    0.59246063661398
H         2.30903324780334    1.26705138648460    0.96333998215405
H         3.45373496196870    2.97214914871878   -0.38478479504654
H         2.25325566209558    4.90311830132647   -1.28559144759625
H        -0.14137116271610    5.25533705417802   -0.79571529525717
H        -2.76340144588144   -0.11610039940628    1.10813575750794
H        -4.29754021191042    0.07413561796371    1.98012470281765
H        -4.02650719811200    0.95258424628415    0.46131787694974
H        -3.51230728339397    3.49018053736990    3.04332246829459
H        -4.48388873074134    3.07651695113262    1.60310210285018
H        -4.72930204473329    2.20070925624537    3.12391350415276
H         1.39292788207995   -1.81976529932204    3.00690508928136
H         1.02072586787240   -1.39527030726740    1.35147520412842
H         2.24146080626399   -0.49903168981567    2.23330629496840
Cl       -1.66475010126850    5.14624685136985    3.39277130897518
C         0.34140983487874    1.47806861958917    4.23538825650958
C         1.58079766253906    2.19264815708565    4.27556892919297
N         2.76450928309552    1.67575445354502    3.69450634007830
C         3.33767381207750    0.58698616922355    4.47405845506771
H         2.55488686598374   -0.11613864108175    4.74563090082043
H         4.08903127744368    0.07409781880949    3.87363279221162
H         3.81800186561494    0.95254413899037    5.39244323798747
C         3.76900126420816    2.67227787453300    3.36353666789926
H         3.30397647238841    3.49004535121144    2.81039717030020
H         4.27542692418856    3.07645027324619    4.25067768905476
H         4.52086974025335    2.20056528461985    2.72990816417161
C        -0.60904195142575    2.28761091182664    4.95594313861806
C         1.43331086167996    3.39219309966717    5.00045100822050
C         0.08288738048142    3.46371293032132    5.45025156122046
C        -1.97992580208920    2.13613535362732    5.24058527307396
C        -2.61223385775739    3.08370608352166    6.01168598551311
C        -1.92555840355909    4.19521017364289    6.52591801959343
C        -0.59413739283110    4.39642212171756    6.25516717392091
H        -0.06708695781822    5.25527997954757    6.64958137944816
H        -2.46171425163089    4.90309193929226    7.13947122730769
H        -3.66222075019010    2.97213045572099    6.23868224456694
H        -2.51755603454860    1.26702157769360    4.89053551480032
H         2.21638435637159    4.09182407137909    5.26149179020149
C        -1.48854824445595   -0.98575408956105    3.53104915773862
H        -1.60149793147453   -1.81974993631259    2.84688605617341
H        -1.22929092085745   -1.39523442737365    4.50231153511209
H        -2.45000870506822   -0.49898885051351    3.62046941853439

