81
CSD_code = TOKHAC | q = 0 | S = 0 | Stoichiometry = C34H37BN6OPRh | MND = 4
Rh        4.85587533799717    1.27380202733874   15.58022482874581
N         7.53924388205868    0.02189574392491   16.46763964183031
N         6.45164352947271   -0.01534940156777   17.27153759038327
N         4.71212333083203    1.38165140395308   18.44530860962162
N         3.90507989849099    1.51779879252465   17.38500904684664
N         6.65676529689371    2.44475297486578   17.42754842724078
N         6.01646296549917    2.74997653810082   16.29134365718738
O         2.75781260642585   -0.63614907683582   14.68275690291501
B         6.22379472110451    1.19272693775165   18.20486582780277
P         5.97570645042531    1.12589865644409   13.61500164319991
C         7.41360003024410    2.21289313269292   13.31684645038707
C         8.42775440216881    2.16526434185623   14.27092050394467
C         9.53946644491833    2.97593198024239   14.13986280206399
C         9.64656691162534    3.84181057893104   13.06266800303788
C         8.63624134746344    3.89617047393489   12.11714335138072
C         7.51824837038166    3.08885811120464   12.24294964433402
C         4.90396990029001    1.46070128806305   12.16515935466169
C         3.71765321384393    2.15053003135647   12.39318494685900
C         2.86088113096213    2.44639421346084   11.34921608482976
C         3.18030579823249    2.04856665153990   10.06153604323826
C         4.35546178178641    1.35375722995902    9.82600168197937
C         5.21447767923316    1.05974273963080   10.86990526772206
C         6.67516381818273   -0.48661206565048   13.10846035948991
C         6.05555745548337   -1.65077431479845   13.54654848632879
C         6.49635968824246   -2.88729324675189   13.11208578417274
C         7.56631790055049   -2.97385368880490   12.23668143654175
C         8.20364378735661   -1.81961625951862   11.81259808209406
C         7.76400457913405   -0.58167540123104   12.24656284193861
C         7.84965863303115   -1.22563118795413   16.15680559223101
C         6.94648725466658   -2.10857132534274   16.76853849210430
C         6.08126860149021   -1.30543465372633   17.48160827258772
C         9.04511055154867   -1.56774570119925   15.33721880557186
C         4.92422298830412   -1.69507353165144   18.33334407277817
C         2.67227651044810    1.75627811784766   17.81850154472655
C         2.68818907455649    1.77617628617914   19.21540055145045
C         4.00384567386639    1.53852318054292   19.57597606779040
C         1.52955675113270    1.96522699151814   16.88922362307181
C         4.59499561873089    1.47056146051179   20.93786072240428
C         7.49025337925983    3.44085958355093   17.76418359861344
C         7.36161817298730    4.43294232648575   16.80774179728584
C         6.41336681541318    3.95698781966914   15.89991288668280
C         8.36877105734671    3.40785029161505   18.96180603254071
C         5.83436357754157    4.65461104935107   14.72023958543998
C         3.61652918081156    0.05751981458028   15.01752639101657
H         6.81231234330432    1.07413686479993   19.22750009445211
H         8.32489099068699    1.49004649139531   15.11325017940915
H        10.32270607050519    2.93749364129601   14.88284636476945
H        10.51432044175353    4.47757737770218   12.96126848833302
H         8.71528505515998    4.57403005939094   11.27891243262517
H         6.72784046794849    3.14624748429293   11.50740811876653
H         3.47082653691544    2.44146754704324   13.41143129384212
H         1.94217763445781    2.98217123821157   11.53838033871145
H         2.51229673850564    2.27366140950239    9.24327431123425
H         4.60317156947303    1.03675811412324    8.82322922882327
H         6.12531481755692    0.51117337413787   10.67745346546712
H         5.23261595947605   -1.58227756857354   14.24336803773766
H         6.00693397972634   -3.78536910203673   13.45940268535538
H         7.91065171079371   -3.93883499759474   11.89394630193065
H         9.04847644247961   -1.88373677391358   11.14175609056273
H         8.27688060496597    0.31335491094557   11.92139869566492
H         6.93033652357803   -3.17788340780333   16.69352137885514
H         9.33262621639768   -0.72660892714009   14.71181145056075
H         8.84298674786148   -2.43122843444842   14.70740049232226
H         9.88296270824293   -1.81142027584682   15.99257048534781
H         5.04106361837919   -1.30614275197340   19.34411281839005
H         4.85380804042265   -2.77906717534317   18.37893120023710
H         3.99235532359946   -1.30321616219459   17.92393983889763
H         1.85730807836291    1.94497785862498   19.86999205415209
H         1.90858201947973    2.16431440257749   15.88608557013474
H         0.91943841935232    2.80383064174588   17.21853777346548
H         0.89804762028440    1.07752514857153   16.85248061094588
H         5.30666082550262    2.28163519780161   21.08571163705115
H         5.12530774427886    0.53158631472086   21.08443458804653
H         3.80802603240055    1.55345623975815   21.68270536670313
H         7.87879455690843    5.37029011831995   16.76958925036315
H         8.96631164317402    2.49864544133234   18.96363952933054
H         7.77743232574784    3.42435005409612   19.87648836652260
H         9.02914719003319    4.27104683308612   18.95616516555313
H         5.24569944464113    3.95445888322789   14.12636459079964
H         6.62110317962331    5.07915542832758   14.09984189148968
H         5.18340427759089    5.46561358724198   15.04899447608764

