69
CSD_code = TOKJOV | q = 0 | S = 0 | Stoichiometry = C32H26N6NiO4 | MND = 4
C        16.62377778262971    3.51019527406514    8.42014875763746
C        17.89325794401507    4.04172449967545    8.21628618830954
H        18.72603777236598    3.39043496698991    8.00773302668183
C        18.07633070395061    5.41087953971699    8.28688014902868
H        19.06541511310026    5.81899569863716    8.13970648274453
C        17.00991585455296    6.25351377669953    8.55190475559989
H        17.16149489865089    7.32161165805691    8.60256852762931
C        15.74763509181497    5.71932101270712    8.75468132622272
H        14.91152795084601    6.37045981204924    8.96345959494481
C        15.54992118915616    4.35376988464801    8.69299869213498
H        14.57736089358144    3.91844653253686    8.85572620816143
C        17.23680736258244    1.13400129949797    7.97391908687825
C        16.51821380504130   -0.08529423264721    8.15264369161338
C        15.24080287412181    0.32588038406289    8.65032335611384
C        14.05976267008321   -0.50154170286765    9.00638025836099
H        14.27366046633151   -1.11513689871567    9.88006130715599
H        13.78711651275806   -1.15851550367945    8.18156845402220
H        13.22735405328616    0.15829813379003    9.23388303469379
C        17.07803854941476   -1.32683688633681    7.80730519370182
C        16.22972022414065   -2.52710151762761    7.97375026947338
C        15.63507131260748   -3.34063938253456    7.04908226734650
H        15.70042740945806   -3.25391351405487    5.98388306609091
C        14.89881781620793   -4.29940291966028    7.78532989063833
H        14.30165438594088   -5.09388858103697    7.38815254222254
C        15.10948218020164   -4.00467236849460    9.09614293283212
H        14.76381528995322   -4.46445685825724   10.00048008966913
C        18.79331297393502   -2.73542999953432    6.92597517415955
H        18.52248634802781   -2.90630803355151    5.87611826308844
H        18.35444892114190   -3.53667495673908    7.53149133891834
N        16.39645702388959    2.13050770348499    8.37258034345737
N        15.19585095785065    1.62254322171579    8.76948706933706
N        18.29667253219865   -1.42544423101171    7.32881773426645
Ni       19.55350552071567   -0.05795364601436    6.99559511971836
O        18.40267770057534    1.30875718870802    7.51353356365427
O        15.90937203280430   -2.93407728589596    9.21910124856035
C        22.48322648226600    3.51019319781559    5.57102538232781
C        21.21374676460925    4.04172170995100    5.77489188012442
H        20.38096653730675    3.39042958529068    5.98343355158172
C        21.03067363843963    5.41087737833228    5.70430817030199
H        20.04158761797466    5.81899130104343    5.85147761370889
C        22.09708722953927    6.25351299352869    5.43928695594470
H        21.94550837043566    7.32161103387418    5.38863493975877
C        23.35936730201504    5.71932173024826    5.23650344368176
H        24.19547607434343    6.37046417427378    5.02774054655609
C        23.55708360396925    4.35376986435590    5.29818296600805
H        24.52964512158440    3.91844827368497    5.13545431984090
C        21.87019292654123    1.13399700426600    6.01723860596266
C        22.58877890777191   -0.08529943424863    5.83848931847244
C        23.86619671770142    0.32587917748496    5.34082923709400
C        25.04725051197379   -0.50153650320266    4.98480447439074
H        24.83337691601205   -1.11510958790249    4.11110332232177
H        25.31986538167897   -1.15853156866423    5.80960964688614
H        25.87967167983740    0.15830243546444    4.75734512834255
C        22.02895816573276   -1.32684259919647    6.18383958336817
C        22.87729030143193   -2.52709511036264    6.01740723249099
C        23.47204530474273   -3.34055966308123    6.94208058616411
H        23.40669815981155   -3.25383055459486    8.00728194939236
C        24.20803197565919   -4.29951521802191    6.20582713400373
H        24.80509752206865   -5.09406839020432    6.60300120426846
C        23.99770658312437   -4.00453410988356    4.89502307525803
H        24.34339480459443   -4.46430154526765    3.99068891962919
C        20.31368513833315   -2.73542422878842    7.06521475364993
H        20.58452526929679   -2.90631050627976    8.11506544954708
H        20.75253840236420   -3.53666685429538    6.45969007478052
N        22.71054356924087    2.13050483962144    5.61858125019915
N        23.91114879727177    1.62254241462245    5.22167119102780
N        20.81033965126563   -1.42544398017060    6.66237374107810
O        20.70432796689358    1.30875318683810    6.47764035933472
O        23.19746248625397   -2.93420251491768    4.77205498743418

