61
CSD_code = TOKKUA | q = 0 | S = 0 | Stoichiometry = C32H20CdN6O2 | MND = 6
Cd       11.02076372516749    8.55290631193993   13.01291916736417
N        11.10275058608389    9.40981622989253   15.04366660539629
N        11.45343049385006    6.44928285376034   13.52164395204443
N        10.15504781879350   10.47466855600818   11.97742407133770
N        11.02787082844339    8.23230640214722   10.69122903343245
N         8.41869513617725   12.19506466950745    7.85201108527548
N         9.28222452589148    9.89792157023287    6.54764561465006
O        12.96187968098042    9.38293553272357   13.02635793875005
O         9.07575152745510    7.69692579605476   12.95753775068979
C        10.21164546672131    9.40186743510669   16.00919916398311
H         9.26133383048894    8.92916489661678   15.78671391524665
C        10.45821927793171    9.97355496936417   17.26628732511426
H         9.69470027746893    9.94011893974686   18.02887492975038
C        11.67049555166277   10.56540335908238   17.49905877495156
H        11.89545205383298   11.01747281315222   18.45564861452410
C        12.65102969225754   10.58965050603158   16.48329164393137
C        13.91395861250945   11.17541154167077   16.64084781857622
H        14.17073104820546   11.63877650186463   17.58179734514168
C        14.80664568444524   11.14691735467803   15.59258185142117
H        15.78183882532645   11.59904764822780   15.71483319690949
C        14.49448257282095   10.55152122345648   14.37979019559848
H        15.21857892282789   10.54265844921286   13.57829346101379
C        13.25287617597571    9.94242926735867   14.14272208981983
C        12.30708952259891    9.97671958033886   15.24266741181349
C        12.59435145848039    5.86539810620583   13.80949858453980
H        13.47991851631513    6.49045542924792   13.77554781457113
C        12.68215058307680    4.50541935435084   14.14248533327893
H        13.64328484154308    4.07213835977876   14.37483109301743
C        11.53819876589972    3.75387037961011   14.16540709343446
H        11.56664330830511    2.70198304646398   14.41595399775970
C        10.29536365427357    4.35091744356492   13.86182909052974
C         9.08108580351295    3.65132458766050   13.86215889611881
H         9.07436842914601    2.59918824742968   14.10507309228334
C         7.91718650733364    4.31994749902101   13.55599222454813
H         6.97972396312087    3.77994187076208   13.55712946982798
C         7.90812365749707    5.67228193482379   13.24829542183863
H         6.97693331283278    6.16905086017226   13.01790088410810
C         9.07994814023739    6.44333575732053   13.23032300461085
C        10.30920946204082    5.74033079195577   13.54323436196463
C         9.74631920070895   11.55080936822822   12.61276745777634
H         9.95593900113947   11.58548742962356   13.67549589936044
C         9.08390383064576   12.60585591175040   11.98141119651076
H         8.77056794713322   13.46808602686440   12.54881961744086
C         8.84145290326294   12.51701231134599   10.62940923030669
H         8.33289247607272   13.29473068135299   10.08046627146774
C         9.26948720624827   11.37650670049112    9.94036064149375
C         9.04465660478389   11.22179683561365    8.52283526376509
C         8.23053378020956   12.02108196378367    6.56244062218657
H         7.72304663919572   12.81884011765250    6.03839831620927
C         8.66532513437801   10.86547320776974    5.90611797440658
H         8.51420744587706   10.71978837008209    4.84550465161465
C         9.48267063289932   10.05546052988087    7.86091582901131
C        10.15962038506416    9.01600202186267    8.59877816181704
C        10.60201708011374    7.84396020355688    7.97453794342058
H        10.42482317774875    7.72058131880278    6.91708780104372
C        11.24686628296783    6.89176589197981    8.73071962140874
H        11.60087151003579    5.97401367544311    8.28811711777195
C        11.43915961107713    7.13650690512017   10.09223025837811
H        11.94996869341055    6.41482009762397   10.71878016141159
C         9.93278224121778   10.36560694726182   10.66428259924414
C        10.39140597429272    9.16768740737889    9.98042004479915

