56
CSD_code = TOKLUA | q = 0 | S = 0 | Stoichiometry = C13H37ClNiP2Si2 | MND = 4
Ni        2.29583476137574    7.04990742120936    1.69865823554975
P         3.79122721142681    5.36104790468405    1.49079576183318
P         3.59959373922251    8.70467289193569    2.32055279542155
Cl        1.31332966490576    6.07479276880443    0.06378573659688
Si        0.00097883248123    6.66752624234259    3.22788163812067
Si       -0.29652375452327    8.77926334900861    0.63408351871364
C         0.67857842544912    8.05540242386975    2.10096556851661
C         1.42946393800477    6.13805515492169    4.41232400866706
C        -1.34834006251069    7.46986172699167    4.32079752990318
C        -0.79436226881945    5.09709390322175    2.48685937879829
C        -1.10264708808514   10.38600983108579    1.30083887286689
C        -1.71169815211670    7.69235691062818   -0.03379135841864
C         0.93731200187158    9.28450586658106   -0.74749404869772
C         4.55652453757958    5.14973871219634   -0.16339722519772
C         2.99457625129052    3.71820927815375    1.67829522044165
C         5.27702608355375    5.06651860019252    2.55937714693816
C         5.06529393770496    8.85364152299233    1.21862559511900
C         4.42128377701803    8.63773680555927    3.96402569290421
C         3.06154918778548   10.46177116842954    2.32416625647939
H         0.95159731627208    8.88757090581356    2.75978962926085
H         1.57473785356570    6.87135574291234    5.19998654729756
H         2.37669114189893    6.04198583085916    3.87298319620570
H         1.22233311317396    5.18238899521606    4.88389454892736
H        -2.20522955380250    7.76319483149660    3.72577450401343
H        -0.98723187265862    8.35318920090603    4.83592803603504
H        -1.69301717110632    6.76813975881484    5.07171564891485
H        -0.13437433891038    4.58555921190236    1.79657678601655
H        -1.69778685828291    5.34992509650640    1.94382214797415
H        -1.06428363651479    4.40479928469647    3.27977058774238
H        -0.36626628149807   11.11072011714492    1.63330768351121
H        -1.75868644986489   10.17641279905576    2.13861318778869
H        -1.69936164631401   10.85767352768519    0.52780961313368
H        -2.45300831221685    7.50524873548639    0.73666395899131
H        -1.34402226424517    6.73775123495437   -0.39041177492199
H        -2.21187947440954    8.19100203558270   -0.85866555730133
H         1.92941376589721    8.89443878379072   -0.52006205252795
H         1.01043067291937   10.36242302555804   -0.86215026301749
H         0.64199220373744    8.86767011976662   -1.70438225400973
H         5.23755405522841    5.97290634382643   -0.37279604001860
H         3.76162063056685    5.15474853433128   -0.90639129753841
H         5.10079836808179    4.20720390499352   -0.20838408152929
H         2.19865417376121    3.63616361240998    0.94147550919888
H         2.56295787320966    3.62982736979739    2.67394378951827
H         3.72667119863443    2.92582858822935    1.52516696735180
H         4.96545599376949    4.98090531140671    3.59938750264444
H         5.98066453200362    5.89299408843385    2.47618403227314
H         5.78013633168593    4.14643306280545    2.26630006998459
H         4.72350130946845    9.05685587832374    0.20498790234567
H         5.62139453374196    7.91847824434685    1.21207994519820
H         5.71755494123777    9.66093551799579    1.54978038334387
H         4.96068686841467    7.69936444651372    4.07101669146948
H         3.66099174314564    8.68827509147858    4.74091145415664
H         5.11284338937860    9.47094635629706    4.07992655684670
H         2.37168336291784   10.63780290796814    3.14681393664138
H         2.54973860550229   10.68328726387647    1.39036175525524
H         3.92454285799133   11.11698175600707    2.43582042426343

