112
CSD_code = TOKLUC | q = 0 | S = 0 | Stoichiometry = C38H64B2IrNO4P2 | MND = 5
Ir        9.18241309994477    9.14583211380121   19.89117592217686
P         8.62121075963934   10.16643146280539   21.89870557628656
P        10.11482114550122    8.79322562316240   17.79550407400442
O         9.14939345101454    6.52066893532124   21.55815788348128
O         9.71599683682210    6.27690141512551   19.38360887244394
O         6.55161719063309    8.22732699242172   20.89996751883317
O         6.81860019596021    7.45498937349651   18.79230378182828
N        10.18043785455638   10.94659680507266   19.65221504969743
C        10.59004625532613   11.64328263508073   20.75668863009011
C         9.92202613423602   11.43779354259123   21.98339465606556
C         7.04612101669125   11.17895052949331   21.86611730462182
H         6.23222426053428   10.45600166634624   21.96510864673627
C         6.93318306729895   12.23005484123741   22.96388113765414
H         7.76756029872691   12.92691157631151   22.91368415806255
H         6.91206633726311   11.77726118038876   23.95235911926937
H         6.01090796914980   12.79683184847703   22.83674169475027
C         6.96105322932380   11.82946438663094   20.48798844436452
H         6.00969441543370   12.34535567820845   20.35773412035912
H         7.06421493980610   11.07272987477083   19.70974538561394
H         7.76322896668366   12.55478842426193   20.36149410779387
C         8.65897354681177    9.45255586875621   23.62134923937455
H         8.52368008382883   10.26690806563569   24.34226930348120
C         7.55677241855625    8.42115702283436   23.81714336416758
H         7.67505843885545    7.62956312246167   23.08276832174601
H         6.57425350269297    8.86878592158422   23.68993293315221
H         7.61465428620626    7.99384255460462   24.81859038575608
C        10.02703906574278    8.81168399924684   23.82786756986153
H        10.10625943156529    8.38832809070866   24.82895151921897
H        10.82552720938109    9.53942611231567   23.69558009044708
H        10.15220560433076    8.01757189752376   23.09750381617416
C        10.31043643317482   12.12908861695366   23.12038927053088
H         9.78421710309341   11.97188435829376   24.05152713671033
C        11.37530447895091   13.01678472781644   23.10303503591109
C        12.07939488910757   13.16688398531267   21.91105159712723
H        12.94521373559623   13.81493549601823   21.88698029166345
C        11.70536439991869   12.49957737073619   20.76749116090419
H        12.29527940847318   12.61199128807444   19.86898648030094
C        11.78784043001140   13.77027855296620   24.33351205906531
H        12.81180495585693   13.51974132063514   24.61166757058664
H        11.13536750476346   13.53326043405157   25.17090234931380
H        11.74638877909853   14.84519202189210   24.15648760073046
C        10.41732492328440   11.42391796887062   18.39154437263687
C        10.52696539535641   12.79064581150374   18.08404608247371
H        10.40041618220432   13.52206768630146   18.86951315464722
C        10.75493383844931   13.21550625597089   16.79403897450148
H        10.82918271729984   14.27595419796798   16.59353000975921
C        10.87691937511115   12.31191938032779   15.74396952915084
C        10.71027535173162   10.96265773248964   16.02539062159617
H        10.75954868673049   10.25741612280216   15.20762432883642
C        10.46988512564137   10.51306775437736   17.31299973391618
C         9.30971863402232    8.11540518710629   16.25539656588517
H         9.98528532452434    8.27362376086550   15.40692018148286
C         8.01623185131619    8.89018992960383   16.02841346306965
H         7.51092992149083    8.53938190549635   15.12882299521883
H         8.21007198377045    9.95602968684248   15.92323576467852
H         7.36395895839398    8.73551058202957   16.88297973877031
C         9.01672817878358    6.62802405043577   16.39284268348034
H         8.37097233871467    6.46969180354461   17.25185234357718
H         9.93254271539907    6.06035308468335   16.53736524981720
H         8.51893920048292    6.25798739977310   15.49608614017545
C        11.81183411219018    8.00101886397103   17.79874952047568
H        11.63426234495526    6.93075749505202   17.93240845786338
C        12.55162823381714    8.53276226533351   19.02333613796576
H        13.50871658933613    8.02695870510217   19.15151261008854
H        11.94825577492052    8.38349363984742   19.91922922608871
H        12.74045443602945    9.59990288922367   18.91780636984273
C        12.63240968675437    8.22934856169809   16.53493932574827
H        12.77239086212220    9.29383937994041   16.35723804156547
H        12.15725409087913    7.78694203843246   15.66256945123205
H        13.61574713915339    7.77265157196897   16.64696732260910
C        11.16760745048378   12.77382669640760   14.34606819464837
H        12.23536973413996   12.69487146865758   14.13334126552189
H        10.87440868209826   13.81293083880424   14.21326872634079
H        10.63618708649594   12.16402466845795   13.61737410739114
C         9.87826437702286    5.29389566236969   21.50161804385412
C         9.93951784741644    4.99368110153019   19.96267273191861
C        11.26765624363642    4.42214917035113   19.47008230317059
H        11.19806939481194    4.23909044644666   18.40042422102313
H        11.48037807169938    3.48073750196508   19.97005500425272
H        12.08320724514153    5.11607019684713   19.64480887010583
C         8.79806529970282    4.08477737679919   19.48684739902536
H         7.84257259654423    4.50484617553920   19.78944724285193
H         8.90116247715064    3.07723786012059   19.87944871782665
H         8.81517138901708    4.04751387023751   18.40032386271160
C        11.26500874631509    5.54458718031336   22.10832432180520
H        11.77627690377251    6.33171231514890   21.56046920639371
H        11.86508005482370    4.63944849880701   22.09786120399777
H        11.14432645380332    5.87101434603689   23.13839174286939
C         9.15359120145450    4.24194927084373   22.33946092310369
H         9.17498570279398    4.54796002836150   23.38244419516848
H         9.64699560683687    3.27812779777899   22.24510170022165
H         8.11488955671790    4.14755044800133   22.04005590086416
C         5.29403428097817    7.64643464527253   20.56406209711946
C         5.20032014062907    6.31696181068731   21.32500189968986
H         6.02973007796726    5.67320418375096   21.04452645130593
H         4.25778935988387    5.81303564985923   21.13117815015023
H         5.28352644590102    6.52078461527635   22.38980273404691
C         4.15778664804790    8.56030575726668   21.01881262223490
H         4.16036412021608    8.61326543951023   22.10496023771927
H         3.20086827444991    8.16075407488212   20.69302995466056
H         4.28126050156121    9.56496653315370   20.62823605904729
C         5.40733321836712    7.45277102421762   19.01119387197280
C         4.81933585033319    6.14873364281627   18.47528382906101
H         4.94618627632214    6.12343315260827   17.39584404768864
H         3.75906586234211    6.08931892034377   18.70678008417649
H         5.32954901802428    5.28659267187611   18.89222815897280
C         4.80969476681670    8.62812453410227   18.22673711629756
H         5.25702362084530    9.56263296911271   18.55497279076645
H         3.73172093660195    8.67230225666273   18.35124393030106
H         5.03365739780274    8.49678180248918   17.17089162278925
B         9.15167415310324    7.12818279541231   20.31632851606664
B         7.46324982452436    8.00794515587599   19.88330436335209

