92
CSD_code = TOKNOY | q = 0 | S = 0 | Stoichiometry = C32H53BIrNO2P2 | MND = 5
Ir        3.13652595238290    6.02171222990764    4.40843780668055
P         4.84481181494011    4.47984720627980    4.25758956662047
P         1.99711313769288    7.99669632024008    4.07472984569465
O         0.49302845433445    4.81212955424244    3.39292819522067
O         2.02515287874649    3.25857552129934    3.96165722643792
N         4.38563352043678    6.95677841184411    2.97514765252988
C         5.72660103434054    6.76359613562703    3.10771404078923
C         6.18385252340224    5.58805460256482    3.74967535426976
C         7.53396081511873    5.36852681039382    3.96469045106446
H         7.85692371989110    4.46477255343079    4.46381089824297
C         8.48697361292209    6.29669662325842    3.57276867476030
C         8.04100809204482    7.47534795739963    2.98018950505404
H         8.76329743753605    8.23100162896445    2.70074779864213
C         6.70476208007637    7.71234464448310    2.75391742649690
H         6.39992486760525    8.65889566116862    2.32882618574370
C         9.94927058831665    6.06729040790884    3.81875914265129
H        10.30102796426193    6.69036475355009    4.64296575747003
H        10.53317063864118    6.32437734795253    2.93578426354403
H        10.14138101174893    5.02691249812037    4.07307062492472
C         3.87915130528075    7.90906060455887    2.13589575461350
C         4.42888675494061    8.22376184930123    0.88186764427612
H         5.28743330446721    7.66991245417257    0.52713543640894
C         3.87060553359047    9.20126131699374    0.09032360611978
H         4.31201952903530    9.41676755867013   -0.87360936423649
C         2.74888501231135    9.91974464609776    0.49932239113948
C         2.16596978642005    9.58455758708372    1.71157011425089
H         1.28284480913369   10.11753605575994    2.03708249687316
C         2.69748027612649    8.58344245228343    2.51000052327889
C         2.18923365319632   11.01667604489382   -0.35774792834866
H         2.83105434843388   11.89827734961938   -0.31552560525116
H         1.19502241956745   11.30328065617918   -0.02162749474588
H         2.12865421344437   10.69989565786345   -1.39810753572886
C         5.48595644705006    3.58391624104133    5.75690581755135
H         6.45459085357904    3.12285031080387    5.53664896102467
C         5.65920421903393    4.61398354832142    6.86833975391946
H         6.36832813554031    5.38635829847390    6.57277615695093
H         6.02419872610650    4.14160839595475    7.77932032794306
H         4.69963648472812    5.08452989788427    7.08024174911809
C         4.47933799962033    2.51192372980533    6.15795875413864
H         3.48442696005653    2.95117826764620    6.20310675638580
H         4.73267458712572    2.09682998768141    7.13260626331499
H         4.46210936697183    1.70158091372275    5.43318425573475
C         4.86278608446300    3.18484912265697    2.90636517596411
H         4.09999849621472    2.45380128380978    3.18615808915302
C         6.20901472853856    2.49070163817276    2.73234092620224
H         6.98980506289055    3.21567236224580    2.50888692018773
H         6.15343444949747    1.78884196503265    1.90047490361617
H         6.49132122181330    1.93197035873832    3.62157819412655
C         4.43822897927735    3.86436525571975    1.60781560499262
H         3.48702598813620    4.37649586249802    1.74732971650467
H         4.33263574759410    3.13328457656381    0.80622727450864
H         5.18109126215055    4.59980945723272    1.30149165213670
C         2.57494563737957    9.27701824454595    5.31771772932684
H         1.99195228481565    9.09476695477763    6.22892039996652
C         4.04609712918596    8.99798256927482    5.61920610406286
H         4.18322621457721    7.96083295884522    5.93556568008715
H         4.40807790515410    9.64740875037791    6.41644524518626
H         4.65795497534656    9.17605526177734    4.73527543822724
C         2.38717357916918   10.72361276782682    4.87576136518488
H         2.92724691608738   10.91333874205199    3.94959208925556
H         2.77684016010699   11.39535439152398    5.64035652183447
H         1.33818074126616   10.96675585498041    4.72211187080729
C         0.16702085468301    8.33337698126493    3.95816393816798
H         0.00737778305549    9.41856775036860    3.96195349089375
C        -0.50305171291869    7.71181438305852    5.17929270659840
H        -0.29707877059516    6.64323557126367    5.18819848565790
H        -1.58027405530062    7.86720064484048    5.14244529818691
H        -0.12643856392401    8.14385180092621    6.10397545536769
C        -0.41361949412262    7.73296725324944    2.68250894497409
H         0.04715882385893    8.15547613448171    1.79288387240582
H        -1.48619604350637    7.91990275745015    2.63753635229982
H        -0.24112091763532    6.66067455025117    2.68683120393391
C        -0.06314206996265    3.56955166942065    2.94331928133304
C         0.84687528959183    2.50705682789311    3.65359744072907
C         0.06767991174779    3.54418227392360    1.41618801374088
H        -0.45665173608912    4.40493812768016    1.00776817030259
H        -0.36358703997619    2.63855336134497    1.00018371473137
H         1.11259469076677    3.62062346751271    1.12828553908882
C        -1.53999794496312    3.51637834614007    3.32496114929507
H        -1.67496358667694    3.71282368358978    4.38301033893883
H        -1.95738326022162    2.54396608554863    3.07833058249431
H        -2.07613546353620    4.28055145788701    2.76825291850916
C         1.21826958691256    1.29890732663093    2.79724836880804
H         1.78533151978102    1.59768503388595    1.92194186814225
H         0.32187808238828    0.77013850753559    2.48453138085904
H         1.83319135578306    0.62421918945047    3.38759609674923
C         0.26946190719760    2.02514897997166    4.98930802550285
H         1.02126031195519    1.42199495165061    5.49219995829259
H        -0.62444918565037    1.42690108086970    4.84144958196299
H         0.04732481335954    2.87933486938568    5.62263085351807
B         1.74920186345823    4.60121752411316    3.89549071484330
H         2.50390061628790    5.64008633639930    5.75951610055497

