75
CSD_code = TOKZEY | q = 0 | S = 0 | Stoichiometry = C27H46SiTi | MND = 12
Ti        0.33653851729357    3.63348964805849    2.51556962642446
Si       -1.33098701729148    3.23985227092506    5.83188204174131
C         0.10917361564111    1.87940037038852    0.48283247596291
C        -0.74216479272820    1.61727528417695    1.58344866997572
C         0.06925897466742    1.39320590162826    2.74016391415046
C         1.43260013544518    1.56559615589450    2.33957719540693
C         1.43807324978026    1.92330906059781    0.96224367844819
C        -0.29460282041428    1.71535955973314   -0.95317633934633
C        -2.17655263173426    1.18305470693923    1.47591626755113
C        -0.36393920543895    0.53635922755595    3.89329501749283
C         2.61351687449034    0.93182061818793    3.02245148229709
C         2.69685669517368    2.04539231637903    0.15158683702725
C        -1.15818146319456    4.83555874917276    1.10047057602475
C        -1.16048670867931    5.51982062408344    2.34979993092576
C         0.12013104575868    6.09587279304139    2.53985954312654
C         0.93956322102752    5.69877114854128    1.45479079587758
C         0.13705638570060    4.96664854346196    0.53633411757325
C        -2.42358826782747    4.45103674787918    0.38683607896332
C        -2.39443769140564    5.86538423048107    3.13227655815150
C         0.46993054255462    7.14453381305243    3.55586331288034
C         2.30766047901811    6.22672873409926    1.13003526810669
C         0.52369901392280    4.83153219487892   -0.90766162244363
C         2.10044870410893    3.98518495567575    3.57672327649304
C         1.43591762517250    3.58759263949729    4.89582916578377
C        -0.04438233369553    3.86500589359235    4.59144189282131
C         1.97148772545601    4.36714558839267    6.10187841559945
C        -0.83007451517642    1.79334183551788    6.99611559583347
C        -1.76909373533119    4.65975705987134    7.06000954554669
C        -2.99066369228243    2.81999145351470    4.95433869537303
H         0.46569844698399    2.08332146460950   -1.63598657041702
H        -1.23968213744407    2.19976598682917   -1.18760251602278
H        -0.42462071105821    0.64724936721142   -1.15013512260348
H        -2.62991824083962    1.52686736275296    0.54955363343119
H        -2.77600846797063    1.53786531829129    2.31297794820316
H        -2.22212029629071    0.09001891923026    1.48096673771991
H        -1.39032753555467    0.74265416460467    4.17922907384837
H         0.27721811174400    0.67359590905599    4.75830389417093
H        -0.30113806735255   -0.51450559346747    3.59226397656494
H         2.56870643369067    1.01451024100503    4.10560854282037
H         2.61982729441656   -0.13414037280639    2.77451013105232
H         3.55535991182230    1.35522037652210    2.67938998908659
H         3.21736915913380    1.08514385764920    0.12308983522895
H         2.48817911060226    2.33596645091687   -0.87527425015058
H         3.37567532732499    2.78073851395534    0.58928251848783
H        -2.22072958438379    3.90566505625770   -0.53057945620140
H        -2.97124086269980    5.35832391234918    0.11592435904704
H        -3.07854792250832    3.84634243644612    1.01350386106559
H        -2.21834783843374    5.83188626790244    4.20595314852408
H        -3.20920194551180    5.18291266014932    2.90307010623245
H        -2.72082773533092    6.87642988048078    2.87327293242358
H        -0.30346276772505    7.22885876363228    4.31650899601051
H         0.55468978960814    8.11304734777217    3.05627651296743
H         1.42142846065259    6.94715321365087    4.05042153142241
H         2.23945385877788    6.95697418870375    0.31888424134172
H         2.75447238959068    6.72286068864500    1.98871100171207
H         2.97521002875645    5.42794349144223    0.80339640267316
H         0.65194045263066    5.83464590975805   -1.32572952591192
H        -0.24438688171588    4.33206330223134   -1.48880045326411
H         1.46870165270524    4.30695313837680   -1.03471358583210
H         3.00977265312698    3.41540729573269    3.36395829746849
H         2.38680375327629    5.04021949916038    3.63496975546852
H         1.58844248446779    2.52198190420321    5.10461240616711
H        -0.13267805723727    4.95411523398803    4.67377919550919
H         3.04576867347699    4.21623398256185    6.20832888941896
H         1.48330199134570    4.03730039425831    7.01690636214579
H         1.78414631972200    5.43335753529738    5.98279730846506
H         0.24798304204171    1.68824910975776    7.06463325182047
H        -1.19640202863977    1.97970756102457    8.00123678503669
H        -1.23350843752359    0.83842296884982    6.67745218170924
H        -2.54667394107127    4.35381779557285    7.75406433257901
H        -0.90689460552973    4.95907860757218    7.64809886399595
H        -2.13015489524570    5.54506245741659    6.54413906074851
H        -3.78452924646751    3.47379882261287    5.30001771474748
H        -3.31293872525144    1.80071701567750    5.14285183674147
H        -2.90046634412144    2.95507546693465    3.87894385058262

