61
CSD_code = TOLCUT | q = 1 | S = 0 | Stoichiometry = C26H25AgN7O2(1+) | MND = 3
Ag        3.03687308067964    7.40411166885554    1.46870669226481
C         8.50509110043152    5.98473071945730   10.94522045158746
H         8.50327058928406    4.92344762272818   10.73588813960374
C         9.08254391298519    6.45600786364580   12.10853933673060
H         9.52900771006766    5.76012538088454   12.80226360313677
C         9.08743569804117    7.81391951169442   12.38109045480929
H         9.53828255028481    8.18193581718565   13.28944530643899
C         8.51117980414312    8.69383539832823   11.48157569159584
H         8.51151832474868    9.75333477745552   11.68700044715703
C         7.92978667195009    8.23358130912553   10.31305896869439
H         7.48321840343788    8.92304491903626    9.61763707946316
C         7.92539435029997    6.87110925458659   10.04129404842398
C         6.72950674357599    6.96773970666814    7.86199932828376
C         5.61463993312970    6.36648792088941    5.71941493972069
C         5.29344384210115    7.66720484975794    5.31270772367989
H         5.57667897618880    8.50848370485460    5.92108857065371
C         4.61151788288860    7.85004343253829    4.13165507197919
H         4.35748029826340    8.85023020915025    3.80579752234665
C         5.21506409331892    5.32443739248534    4.87100020359942
H         5.43473960471198    4.29776849766227    5.12225435945521
C         4.53586448994005    5.61386236666151    3.71006312275038
H         4.22426552436172    4.81419076965981    3.05191495510539
C         1.62816245237692    7.72110376173790   -1.30504640565435
H         1.70074408606709    8.73352952048782   -0.92952623102929
C         1.03003496758462    7.48321898577700   -2.52110902350784
H         0.62938578307524    8.29312609071593   -3.10585788085363
C         0.94637708706175    6.16738852258842   -2.99323888909349
C         1.49353592710838    5.16857312571036   -2.17556400072164
H         1.46560977429432    4.13322701040569   -2.48070748493708
C         2.07002266169897    5.51190230437141   -0.97438137801096
H         2.49388276926187    4.74571068481416   -0.33927733535915
C        -0.23964241206171    6.66803904512396   -5.12346126628532
C        -1.36322494392058    6.47270039339061   -7.33440500155603
C        -1.62998061990344    7.82228129450864   -7.52905070040030
H        -1.32713740510746    8.54340646249241   -6.78969240827787
C        -2.28662800064047    8.22877822957022   -8.67748182857306
H        -2.49074770404403    9.27852302213623   -8.82301966622579
C        -2.68009252388572    7.30780152747068   -9.63277908994795
H        -3.19131289744092    7.63402228558725  -10.52500859401420
C        -2.41340464043110    5.96274604375562   -9.43725184112694
H        -2.71497464134899    5.23528061186975  -10.17525070340711
C        -1.75821844562827    5.54505570733348   -8.29482782874810
H        -1.55126521068136    4.49374854132906   -8.14599262620478
C         2.04316353049948   10.71515141070573    1.88019517230156
C         1.57661376601606   12.04671235364756    2.05625586505191
H         2.42174085521051   12.71010260957071    2.24083075267900
H         0.89507963534074   12.08614358745504    2.90611413455275
H         1.05202728846071   12.37330099199675    1.15832739881787
H         7.43991512155834    5.31273069572144    8.82984279685475
H         6.45520736389872    5.08206597239810    7.02829567257273
H         0.39545273454777    4.82603721774336   -4.39580072015266
H        -0.57100083234132    4.97176609967802   -6.21579056279375
N         7.35482091817619    6.31896888115069    8.87742516869987
N         6.28531308941973    6.06729653026418    6.87576695685288
N         4.22456583388656    6.85498360957864    3.32594407368588
N         2.14623111996068    6.76729074566718   -0.52327785072519
N         0.37180286947094    5.81506981125117   -4.18576617531021
N        -0.69857737108466    5.97444216830660   -6.19638752664174
N         2.42063819946407    9.64271455407604    1.73771573039670
O         6.55453090303308    8.15780954553231    7.77824969573920
O        -0.32535467373158    7.85911695078122   -4.95612641611052

