69
CSD_code = TOLHIN | q = 0 | S = 0 | Stoichiometry = C33H28N3NiO2PS | MND = 4
C        -9.97026799487913   -1.32583994643272   12.26382874881099
C        -9.96380767359475   -2.74317250770181   12.46649394881484
C       -11.11197096639975   -3.47618558588242   12.30140277226822
H       -11.10976247978268   -4.54464514449320   12.45146378178399
C       -12.31008174350439   -2.85061419148351   11.93021142872025
H       -13.19932292134252   -3.45110968549036   11.81499990315853
C       -12.34724894268032   -1.50393315217867   11.70697618923771
H       -13.26488807275346   -1.02149110096007   11.40457998236053
C       -11.18456353455974   -0.71983453302212   11.84784689841595
C       -11.22510039956327    0.66435260975838   11.54243139680440
H       -12.19608901927536    1.09283969163514   11.29968055171465
C        -8.60960886850061   -4.63651107133880   12.96609849081768
H        -9.23933883560880   -5.02275413946791   13.77531275323713
H        -7.56226461260773   -4.80949382987595   13.20995997375574
H        -8.85501707294266   -5.15893976220015   12.03523964604904
C        -9.52389804394220    3.56379442643855   11.01189405906622
C       -10.75405188436002    5.58465721244185   10.25162170080312
C       -12.03698243512944    5.04347774338040   10.23612867757923
H       -12.17225696606351    4.01706327422985   10.53211417007079
C       -13.10811666555645    5.82449111376902    9.84507634213695
H       -14.09975549193686    5.39637047289409    9.83591062336484
C       -12.92284456547625    7.14381192579749    9.46695635073196
H       -13.76458451718313    7.74704924348269    9.16232324109339
C       -11.64753082408128    7.68465281778461    9.48266620543397
H       -11.49099794240813    8.71255449400418    9.19002762138962
C       -10.56952253377248    6.91457682285852    9.87132973364737
H        -9.57487935904660    7.33865283320514    9.88244458862708
C        -4.93076419269259    1.05079305928545   11.33498956501507
C        -4.67204056063857    2.35561608386441   11.74825206433325
H        -5.34445784698535    2.83016964991000   12.45047916673376
C        -3.57673584050977    3.03954138806152   11.25634606566376
H        -3.38164308333402    4.05075636057422   11.58185096928965
C        -2.73413113743955    2.42895862180952   10.34086544240665
H        -1.88021553398886    2.96360402120664    9.95156286075846
C        -2.99250818961884    1.13561833112717    9.91954837953876
H        -2.33991774025140    0.66068847127757    9.20133251975990
C        -4.08675313253555    0.44561105249995   10.41231037103244
H        -4.28545923581779   -0.56214161808365   10.07670045563763
C        -6.46310153294371   -1.34481335871143   11.08348046585499
C        -7.31646262344894   -1.35736805709637    9.98461934789331
H        -7.88134555036829   -0.45589068494078    9.74844124852303
C        -7.46522117661053   -2.50306853583184    9.22777824375561
H        -8.14043617659641   -2.51299912216252    8.38456210168549
C        -6.75376192138593   -3.64440466671421    9.56321881240628
H        -6.87544643847741   -4.54626248453931    8.98083915425397
C        -5.89154982858978   -3.63207829614464   10.64698564930135
H        -5.33660333092275   -4.52309723596205   10.90430595275525
C        -5.74257682153608   -2.48617541455792   11.40874289957295
H        -5.07637110831340   -2.48071276824682   12.25989279924701
C        -5.77510338295189   -0.34080804163799   13.66786661145820
C        -4.64010509101212    0.20185956139249   14.26078720261068
H        -4.07042176217672    0.96582522168281   13.75198583232259
C        -4.23021508556225   -0.24282230597096   15.50606918331800
H        -3.34458547865409    0.17931278917865   15.95874139380684
C        -4.94865593816974   -1.22246488112415   16.17010539596227
H        -4.62450393109348   -1.56560026754456   17.14183141492638
C        -6.08504381604453   -1.75868129396560   15.58505308268658
H        -6.65041309705581   -2.52089101631930   16.10146626888336
C        -6.50173628089158   -1.32064086240500   14.34217083004562
H        -7.38605014176313   -1.73240257948811   13.88054411307386
N       -10.20806291342470    1.47909579102826   11.47503548412367
N       -10.52230139979286    2.75126983433625   11.11924939110505
N        -9.63440439736876    4.85882943311578   10.63227412209203
H        -8.75347737650285    5.35522583333227   10.60439467720935
O        -8.88401960674736   -0.66598674713211   12.47165884915891
O        -8.74085467770982   -3.24787659379469   12.82535227533933
P        -6.38673784362982    0.20287647565576   12.04003832368238
S        -7.88479700885582    3.05182107597252   11.35995554491841
Ni       -8.40665340083758    1.02679374596487   11.88029568800715

