50
CSD_code = TOLKEN | q = 0 | S = 0 | Stoichiometry = C23H17Cl2N7Ni | MND = 6
Ni        1.61770504857424    2.57749013255741    6.67885633532604
Cl        2.51138251898107    3.13975685038267    8.61121907611265
Cl        0.67063379718099    1.83811386970340    4.83568486770525
N         1.40891341017596    0.93795825123353    7.35142826443909
N         2.20557955160870   -1.24456635767996    7.64079438409453
N         0.16900086436342   -0.60310293149926    8.60565653578517
N         3.58564956531292    1.56139675395373    5.91543575446429
N         1.93652505083417   -3.71904082625988    8.68645195149348
N        -0.45831836484516    2.80972167812607    7.74747107427497
N         1.84029952084187    4.26962836638193    5.99160278457452
C         2.31550252690867   -0.02705470408679    7.14766539024860
C         3.47440297199920    0.28936231664786    6.31109524647567
C         4.37250727979671   -0.70791116234746    5.94025492616794
H         4.21772745285910   -1.71030443139007    6.30499425157535
C         5.42454587274850   -0.36570315085929    5.11025513497079
H         6.14321071476472   -1.10865403266304    4.79760587250931
C         5.53192818151097    0.94889804588845    4.68271252163056
H         6.33167181046994    1.25721644154593    4.02741805128585
C         4.59017695071563    1.87285798296257    5.11540120416393
H         4.64638911807455    2.90637458170842    4.79878537359956
C         1.12211074090348   -1.50195288766808    8.36217021629245
C         0.96198465980411   -2.84535917600905    8.92386087841593
C        -0.17246107659928   -3.16540990260442    9.67191308425502
H        -0.93191425962573   -2.41760940031142    9.82995440323831
C        -0.28250806135940   -4.44461749168335   10.18737358966608
H        -1.14599939994994   -4.72900132620458   10.77142455353359
C         0.73506564164872   -5.35310060633211    9.94077002421393
H         0.68951540003375   -6.36035588266871   10.32473775266084
C         1.82144265815394   -4.93248922493475    9.18187549052173
H         2.64066742901179   -5.60443432632872    8.96098913022128
C         0.34787428446398    0.60080763111053    8.09411265168247
C        -0.64839009721692    1.64031352038862    8.36610852870596
C        -1.70266340317427    1.40991883757129    9.24561384997610
H        -1.79689291581467    0.44257681610629    9.71062588573567
C        -2.58871284100301    2.44145580992678    9.49690861908170
H        -3.41881509185154    2.30161657298073   10.17350164512092
C        -2.38344187831518    3.65935599720757    8.86765726524888
H        -3.04520583431032    4.49353109321842    9.04090982183906
C        -1.30570759888198    3.79055096626802    8.00223087336281
H        -1.11595695632075    4.72889510701221    7.49743011725433
C         0.83683100297882    4.89904599147124    5.38175775265274
H        -0.08871606580338    4.34966944077986    5.27118905667645
C         0.95931420961967    6.18098745423975    4.87404637824968
H         0.11438199521693    6.64793771894834    4.39266424966694
C         2.17221604326597    6.83952556457459    4.98853936560829
H         2.30073961015205    7.83886401770201    4.60045863013551
C         3.21582542903792    6.17864995627049    5.61475562465089
H         4.18159105985392    6.64491979900462    5.73101738291703
C         3.00798458997979    4.90122385298732    6.10558777093478
H         3.79700688322554    4.37944640266465    6.63072640657536

