91
CSD_code = TOLTUK | q = 0 | S = 0 | Stoichiometry = C42H42As2I2O2Pt | MND = 4
Pt       -0.00002789699742    0.00009177442773    0.00026940090817
I         1.67842982908925   -2.02346536296111    0.12205355681846
As       -0.77354581168076   -0.41949860066065    2.27297072696661
O         1.20587918918580    1.52212498674205    2.36326099302240
C        -0.90296294037569    1.23998179565965    3.24504581761219
C         0.19686572786305    2.09186181345068    3.08132054552554
C         0.17847466120866    3.35884895643112    3.64222814349539
H         0.99550545753178    4.05108529940967    3.50682951511405
C        -0.92433558440897    3.75510190553190    4.38405411586224
H        -0.93399182901881    4.74335113027297    4.81901489852853
C        -2.00390591660608    2.91186057304412    4.56265697530743
H        -2.85730460457706    3.23491748772551    5.13909392618075
C        -1.99722356091125    1.65464615151598    3.97822078086101
H        -2.85096831592345    0.99576725699905    4.08645502724591
C         2.38764617282904    2.24944427836844    2.04430040016395
H         2.60261218590145    2.97174367889993    2.84234839899585
C         3.51931692833111    1.23105876250263    1.98381494298760
H         3.68445050870783    0.79125731002565    2.96477142349034
H         4.43598281218054    1.70386440653520    1.64414789888398
H         3.25409069243669    0.43043095706054    1.29983587570907
C         2.18302464038106    2.97519410899481    0.71750987531379
H         1.88036638708529    2.24570606843130   -0.04347787120508
H         3.10082742986682    3.45711785385449    0.39211627650865
H         1.39668360368893    3.72283954069997    0.80876858273895
C        -2.54191404823582   -1.15627753099602    2.63721136481860
C        -2.77664206702410   -1.92757703735762    3.76961077725464
H        -1.95931556202700   -2.16267177975226    4.44262941206399
C        -4.04930572202949   -2.39519532681843    4.04675219960771
H        -4.21862767757607   -2.99428639300938    4.93012839387645
C        -5.10271475479416   -2.09407700075720    3.19933345191810
H        -6.09442982941217   -2.46213206233997    3.41777179153137
C        -4.88097969007906   -1.31436482472901    2.07714779132731
H        -5.69937488682536   -1.06380634453856    1.41792560194737
C        -3.60770532248654   -0.84917262617507    1.79998458730852
H        -3.44320058844389   -0.22788684958937    0.92857919143875
C         0.30216404830769   -1.51479123440565    3.45474970044958
C         1.07692028325242   -0.96918781462118    4.46692689034175
H         1.08553255903430    0.10373129580680    4.62168975885937
C         1.83413850357588   -1.79096855881349    5.28525734079794
H         2.43611311630269   -1.35801650128532    6.07187566701942
C         1.82105732537896   -3.16177569733387    5.09689016838009
H         2.41586186775455   -3.80032919953137    5.73320273498963
C         1.04438698725604   -3.71501613927035    4.09135052551786
H         1.03197413543608   -4.78442008136491    3.94132053399775
C         0.29014395926952   -2.89497589156585    3.27412464904210
H        -0.31997430569215   -3.32264741488853    2.48239950214535
I        -1.67869484304950    2.02359596211643   -0.12164981303940
As        0.77359615665586    0.41952023607628   -2.27310606852078
O        -1.20584372697364   -1.52214984971667   -2.36323322070064
C         0.90296696839842   -1.23999133592839   -3.24508275896859
C        -0.19683952147561   -2.09188325174277   -3.08130839762508
C        -0.17844092132035   -3.35887380279991   -3.64220669726184
H        -0.99545188175044   -4.05112434495809   -3.50676423732699
C         0.92435687323747   -3.75510495268888   -4.38406155513836
H         0.93404785838523   -4.74337652236380   -4.81896420548151
C         2.00392037653831   -2.91185525097400   -4.56266819484095
H         2.85734212377128   -3.23491366851053   -5.13906056149414
C         1.99723390568533   -1.65464655252036   -3.97823403447888
H         2.85097085638913   -0.99575487560399   -4.08645274135575
C        -2.38761972260429   -2.24945912235256   -2.04428985731392
H        -2.60259470773104   -2.97171907611909   -2.84237087803088
C        -3.51926527764634   -1.23104871130952   -1.98375835201480
H        -3.68448745570007   -0.79130343162304   -2.96472563332266
H        -4.43590282006216   -1.70382346689945   -1.64397615999020
H        -3.25396612526466   -0.43038370586116   -1.29984853070318
C        -2.18300101436407   -2.97525381560250   -0.71752282731045
H        -1.88031810044136   -2.24581404418136    0.04350191513467
H        -3.10082070103932   -3.45716403640852   -0.39215704385053
H        -1.39668899140294   -3.72292477462684   -0.80881823217406
C         2.54193526423268    1.15638497218420   -2.63719905140138
C         2.77664072541887    1.92770653147175   -3.76958427387191
H         1.95930335829789    2.16284569678754   -4.44257487506667
C         4.04931050805660    2.39528953588177   -4.04674613338381
H         4.21862111100512    2.99442916021324   -4.93009002528614
C         5.10273709279930    2.09410689341832   -3.19937199746970
H         6.09444978564190    2.46216376770940   -3.41781327019433
C         4.88101979856362    1.31435335945898   -2.07721261708177
H         5.69942322451471    1.06373007787466   -1.41802929765008
C         3.60773916893655    0.84920322422978   -1.80002134195483
H         3.44323975153606    0.22785676040535   -0.92866011006899
C        -0.30222857511277    1.51480083550797   -3.45475764229299
C        -1.07693105677421    0.96914421025435   -4.46694110197570
H        -1.08547709498016   -0.10377848442880   -4.62168313842242
C        -1.83413307021283    1.79088138737093   -5.28532839653844
H        -2.43609094792304    1.35788201544247   -6.07193474960660
C        -1.82110242143636    3.16169336049211   -5.09699028143299
H        -2.41595408613091    3.80020657649860   -5.73329975642291
C        -1.04448191100867    3.71498434225074   -4.09144121577613
H        -1.03215269649507    4.78438598367198   -3.94140183370323
C        -0.29022622612854    2.89499122168863   -3.27418011460609
H         0.31986089223318    3.32270384658864   -2.48245295163472

