43
CSD_code = TOLTET | q = 1 | S = 0 | Stoichiometry = C12H24Br2CoSe4(1+) | MND = 6
Br       -1.54142818058054   -0.24759695612863    1.77693201443756
Se        1.34269262739079    1.33934766380693    1.54824277331699
Se       -1.22804977932752    2.03553695783713   -0.58527272729363
Co        0.00000057665021   -0.00000012138659   -0.00000075292632
C         2.00218492173348    2.90900973888598    0.57834532082990
C         0.89492310050283    3.87918109121223    0.18735177497074
C         0.07850869871872    3.43035207742668   -1.01768056523867
C        -1.79209389907748    1.68154859544522   -2.43792506857889
C        -3.05098178229161    0.82613481050951   -2.53166140609811
C         3.05525212940818    0.36880120674183    1.58441320641382
H         2.69421050761633    3.39261219101476    1.27254950301327
H         2.55229807290559    2.55466468981833   -0.29645134764417
H         0.23338508941764    4.06098275003184    1.04389696103891
H         1.36543820639235    4.83215205945634   -0.06835995681741
H         0.71900373597866    3.05218888504583   -1.81781951761535
H        -0.52069124488644    4.26357001714368   -1.39376730603296
H        -1.95248639675409    2.65743198861532   -2.90080634818476
H        -0.94585693791926    1.18918177608365   -2.93167828943533
H        -3.93210957422725    1.43131314240538   -2.30259592456365
H        -3.14053642231286    0.48369541719710   -3.56598002842554
H         3.25415237983246    0.05136217301873    0.55391272799843
H         3.81286150452112    1.09624076023547    1.88304632914198
Br        1.54142972135436    0.24759894729484   -1.77693313656644
Se       -1.34269297264882   -1.33934800754743   -1.54824315639657
C        -2.00218507023042   -2.90900987599337   -0.57834522381113
C        -0.89492324159862   -3.87918120861351   -0.18735164103727
C        -0.07850880571341   -3.43035220482811    1.01768068123376
Se        1.22805007012804   -2.03553743926715    0.58527286448917
C         1.79209392297014   -1.68154869626690    2.43792522052652
C         3.05098170468738   -0.82613477087964    2.53166150357612
H         3.93210956256747   -1.43131302757383    2.30259610401268
H         3.14053627168067   -0.48369528181002    3.56598009332275
H         1.95248647486481   -2.65743201104908    2.90080664284686
H         0.94585688522842   -1.18918187793049    2.93167832798008
H        -0.71900382004400   -3.05218886466586    1.81781958621193
H         0.52069100070671   -4.26357020293637    1.39376750595469
H        -0.23338525547016   -4.06098294094535   -1.04389682598126
H        -1.36543837443572   -4.83215214180738    0.06836014877168
H        -2.69421073453834   -3.39261241378474   -1.27254926176435
H        -2.55229812827482   -2.55466469208682    0.29645144867177
C        -3.05525231012426   -0.36880125232014   -1.58441321946333
H        -3.25415243505236   -0.05136227435633   -0.55391269136412
H        -3.81286179974824   -1.09624067704857   -1.88304634352045

