79
CSD_code = TOLVAS | q = 0 | S = 0 | Stoichiometry = C38H34As2Cl2O2Pt | MND = 4
Pt        2.71198416587756    2.67944098083256    6.03831065902429
As        2.29173648320221    4.99959082610285    6.01125353180873
Cl        1.47567483039213    2.52010594059967    4.07965028636407
O         0.17801159262278    3.58403815679376    7.20844385258710
C         0.41771282587318    5.29525014111590    5.66003358902157
C        -0.44783711628456    4.42908997410547    6.34121162730429
C        -1.81439093374255    4.49318018385465    6.11530815056548
H        -2.49694889529748    3.82739892488463    6.62071860219622
C        -2.31015258850943    5.42552637480218    5.21568595561496
H        -3.37502200416800    5.47217455720319    5.04122440131280
C        -1.46215537379993    6.28391653995104    4.54189338228450
H        -1.86071944898583    7.00174099702205    3.84085676350115
C        -0.09432057781118    6.21110589394939    4.76023413057453
H         0.58424290642310    6.86450779256632    4.22368878965649
C        -0.58804270768483    2.60591011315396    7.87226575547960
H        -1.32822958138287    3.06719275861689    8.53497835314483
H         0.11766514268780    2.02454717598585    8.46384816900223
H        -1.08986382125369    1.94531551129925    7.15820407803935
C         2.60135373820477    6.03806833407881    7.61892794203181
C         1.56980419033652    6.59541349460996    8.36126631757671
H         0.54367039671172    6.47283636262391    8.02941066321473
C         1.84958022900012    7.30523919688610    9.51736877907927
H         1.04306601740773    7.73790054192285   10.09257618220126
C         3.15953156304721    7.45857673988024    9.93791805775017
H         3.37501116526516    8.00877366549791   10.84233320219172
C         4.19434416526718    6.90262308024633    9.20205900360113
H         5.21619554976527    7.01777481061955    9.53352537487780
C         3.91545237180488    6.19392057870761    8.04867966798700
H         4.71496384410086    5.74263561360352    7.46797092168169
C         3.13882441744141    6.10501703747366    4.65295876014241
C         3.49406967026219    7.43029169069217    4.87639748215025
H         3.30931471773349    7.87876861980814    5.84742892961225
C         4.08021735134778    8.17347477063933    3.86545956709613
H         4.35332756910922    9.20375462087150    4.04423008963538
C         4.31485801041573    7.59937603445557    2.62688121187029
H         4.77247125422391    8.18199285089437    1.84066638549690
C         3.96168655803472    6.27936820145970    2.39691527556309
H         4.14113997917853    5.83232181113988    1.42959962620476
C         3.37852962098848    5.53446881878476    3.40695434808221
H         3.08576804087133    4.50240647216743    3.23906755254153
As        3.13265402586818    0.35923560264881    6.06542673952581
Cl        3.94721550508334    2.83812539582979    7.99764223422999
O         5.24843613856683    1.77719375162317    4.87010607419371
C         5.00678112387529    0.06439735364794    6.41714230054350
C         5.87291345823171    0.93070378635650    5.73695100187286
C         7.23939769673436    0.86574661071646    5.96337924550412
H         7.92256691562361    1.53084435606169    5.45791086592278
C         7.73445164881385   -0.06645107553028    6.86350760040574
H         8.79920061778633   -0.11327461156348    7.03857054546007
C         6.88570299256198   -0.92419911323968    7.53718898629237
H         7.28351484819225   -1.64150147488877    8.23919261718303
C         5.51812260158519   -0.85137792157752    7.31744334056525
H         4.83927168399772   -1.50489961518752    7.85346679967269
C         6.01657615305871    2.75529823799740    4.20854401165922
H         6.75678838738049    2.29395293025478    3.54583985688073
H         5.31257580629071    3.33890814362554    3.61716129330375
H         6.51879837038777    3.41382767156157    4.92423774595424
C         2.82418981093262   -0.67941380244942    4.45748130960371
C         3.85697994522751   -1.23574089480582    3.71593416976824
H         4.88255801901801   -1.11154943715517    4.04891345170222
C         3.57912285110608   -1.94613015567365    2.55978854424040
H         4.38670346420701   -2.37787013590382    1.98538987637168
C         2.26965323709910   -2.10111509713229    2.13824895742590
H         2.05545530007231   -2.65229248332368    1.23410587478203
C         1.23368297264877   -1.54575419845017    2.87283093818545
H         0.21229935124188   -1.66182062028600    2.54022826244775
C         1.51068427107602   -0.83641800907936    4.02636231786360
H         0.71002561588120   -0.38565576385509    4.60582729135757
C         2.28581305416122   -0.74721024814156    7.42342401498684
C         1.93089431378898   -2.07240163534744    7.19896817258003
H         2.11657463826558   -2.52050120347838    6.22794314724130
C         1.34400015178232   -2.81632348069319    8.20894483429880
H         1.07118990721005   -3.84653368718339    8.02929966278007
C         1.10806807827144   -2.24302164703741    9.44766353229674
H         0.64927478773739   -2.82600573532950   10.23292500362988
C         1.46156248200943   -0.92331505508745    9.67888958644410
H         1.28142651026801   -0.47701736060671   10.64644048373234
C         2.04565622591885   -0.17775073821269    8.66986129945129
H         2.33879171934547    0.85397517100320    8.83901259157578

