73
CSD_code = TOLVEW | q = 0 | S = 0 | Stoichiometry = C36H30As2Cl2O2Pt | MND = 4
Pt       11.33877432807242    2.78560743433847    1.56178436435417
As       13.64595275125130    3.16442742015721    1.12708195896528
As       10.10771927044003    4.08656740360154    0.00591496539051
Cl       12.27889895068374    1.48193525355314    3.20105589083779
Cl        9.16444114979416    2.40235240631805    2.29254777242381
O        12.55100547275893    1.91753811712958   -1.18626829900156
H        12.01189000408915    1.52856546334173   -1.88548435745407
O         9.86814043116748    1.27760162880983   -0.67712712704325
H         9.81235491313317    0.35921611497200   -0.38685497551296
C        14.16570676248316    3.53334866914928   -0.71742975589138
C        13.46231013541921    2.79912393345706   -1.67487436233815
C        13.71569438592875    2.96737313717262   -3.02681186429451
H        13.15964941280929    2.39789151421000   -3.75952843127028
C        14.68412487873628    3.87328453599600   -3.42558998858055
H        14.88835531098877    4.00368007058475   -4.47762189059031
C        15.38561985934448    4.60823134720513   -2.48657057105114
H        16.13826107153906    5.31339295220260   -2.80590871364405
C        15.12115629539143    4.44176227208342   -1.13603125111142
H        15.65769770189168    5.02636496464945   -0.39879894609298
C        15.06220090228384    1.93406879032911    1.61798677531538
C        15.62862356496821    1.08452201505011    0.67619386910850
H        15.28387771323221    1.11895167467659   -0.35221613102762
C        16.62376702532801    0.19600040156447    1.04828681378371
H        17.06004804283041   -0.46357190094737    0.31155585068018
C        17.05588584568350    0.14943645214454    2.36255067369253
H        17.83037367197422   -0.54564433134294    2.65211674545146
C        16.48998857899739    0.99032768573903    3.30777308499023
H        16.82095287080114    0.94873439781277    4.33530504117800
C        15.49568156186253    1.87764571854664    2.93891879760703
H        15.03185645806778    2.52463211074320    3.67618755253726
C        14.20093903301050    4.81060827822542    1.99683055595562
C        15.52630763391887    5.12088374618153    2.28126067095962
H        16.30619356603670    4.40096817078742    2.05276624034143
C        15.84588535437025    6.33484417394102    2.86531653888359
H        16.87697490652824    6.57069819116090    3.08707617273048
C        14.84736426989287    7.24669650252579    3.16873867019384
H        15.10175859277430    8.19127050374759    3.62658405626601
C        13.52386589123803    6.94394878965608    2.89305497794401
H        12.74197070032786    7.64965881927892    3.13430388207611
C        13.20629517799178    5.72934636371656    2.31141991099714
H        12.16714428990073    5.46931044337347    2.10302487627882
C         8.51735742883572    3.19848746116056   -0.64913411210473
C         8.62123898584200    1.81658036569429   -0.81376414720913
C         7.50563511970197    1.05818409861279   -1.13173250207470
H         7.58909926579389   -0.01640400265696   -1.22443347544051
C         6.28449132856681    1.68636366473365   -1.31218364057969
H         5.41393606721809    1.09635735619361   -1.55666349851078
C         6.17498580535643    3.05833458825078   -1.17076961733637
H         5.21882519608762    3.54135314585220   -1.30593252992150
C         7.28729576712834    3.81007784309582   -0.82580026593218
H         7.19707348876659    4.87912029376986   -0.66996076533637
C        10.88274246320833    4.79060961071694   -1.64105798088147
C        10.48002551080351    4.36302226847971   -2.89816374143376
H         9.69539222486369    3.61649722859263   -2.97976734645071
C        11.06553228047018    4.89132409748633   -4.03709053890823
H        10.74232393277007    4.55946696194613   -5.01376424761465
C        12.05881703052587    5.84854021639569   -3.92524319813534
H        12.50990874131128    6.26540333963697   -4.81341557601579
C        12.47682271418657    6.27073560431038   -2.67289019205228
H        13.25526759250320    7.01427302221475   -2.58468991853776
C        11.89588780185866    5.73777597146631   -1.53807799136637
H        12.21795344114272    6.06140676242556   -0.55024311139685
C         9.40580420345235    5.74341817429146    0.73819770904565
C         8.98344227184838    6.78443466005376   -0.08206513647193
H         9.04735117640997    6.67779276966376   -1.16086309472824
C         8.49325766969584    7.95393021887815    0.47248028836233
H         8.16355894994937    8.75784020025340   -0.17037341019163
C         8.42557198418825    8.09462145344902    1.84924524314626
H         8.04222405776327    9.00866190221739    2.27884788974448
C         8.85001224970996    7.06479605249005    2.67231086076563
H         8.79895326915854    7.17319275631615    3.74590304137508
C         9.33950074224944    5.89456137436043    2.11808128150292
H         9.66550250095207    5.07673890374789    2.75479368073637

