70
CSD_code = TOLVOF | q = 1 | S = 0 | Stoichiometry = C34H33NPRu(1+) | MND = 9
Ru        7.20366455529439    7.74792048653233    1.08721380517405
P         6.97495097989148    7.87860376667906   -1.20287772736156
N         6.54051504805267    5.67074109048855    1.17820556284733
C         8.90969307236172    6.70022653003817    0.63239154921949
C        10.19769414097561    7.20320554955128    0.73386160316984
C        11.29931364132795    6.39343013856930    0.49162462807516
C        11.12183218103571    5.07050786020107    0.13286619278354
C         9.84292805811467    4.55093043548944    0.01995884401978
C         8.74347475580256    5.35803827072724    0.26996639532544
C         7.30888182433412    4.89113570942649    0.15978954688430
C         7.14575127973968    3.37453961482359    0.23614239272081
C         5.10031614312448    5.59211239799444    0.92467370432020
C         6.81897270346344    5.12986580109954    2.51592502411362
C         5.97918802860203    8.33754787152603    2.97716217976632
C         5.54135299089775    9.17903841322194    1.94892433304375
C         6.49478521510684    9.91131178345798    1.21414422654708
C         7.85847743679114    9.89247379110292    1.58290880409960
C         8.27782900546760    9.07443704113334    2.64731247087850
C         7.34618783300020    8.27916287143704    3.33513894246397
C         7.68363895294478    6.80544107800734   -2.49169801580022
C         9.01061268138461    6.46075458277866   -2.68096910153648
C         9.34884689179142    5.64771380123272   -3.75181682430979
C         8.37378975713912    5.19112302432409   -4.62515026341829
C         7.04694703583815    5.54758575793096   -4.45081463445751
C         6.69057074700661    6.36083603968105   -3.38480682944542
C         5.35568723422704    6.85133191840952   -3.06488558030602
C         4.17503831130378    6.59609225718102   -3.74908006613181
C         2.99189674758585    7.16924209905830   -3.31303201915004
C         2.97039011938035    7.99448429109657   -2.19810237070913
C         4.13951531408297    8.25239522424532   -1.50039838094898
C         5.32732875474833    7.68725950876801   -1.93490850740554
C         7.54544528755330    9.49504203033858   -1.82536968543676
C         8.89052096889730    9.79853758530899   -1.62708168241930
C         9.40390308768833   10.99711408660631   -2.08433431441644
C         8.57746999801916   11.90008614461747   -2.73650908750858
C         7.24051518288001   11.59898871615688   -2.93469791041323
C         6.71918631432978   10.39752886377756   -2.48405087202900
H        10.36967068516895    8.24025055333205    0.99126273723401
H        12.29397201744233    6.80439328694465    0.57780965262314
H        11.97681473353946    4.44231598828173   -0.06187327100615
H         9.71410461555682    3.52039040273065   -0.26963211108681
H         6.91530777454944    5.22181530909889   -0.81549508071792
H         7.52028603079731    2.94257071499595   -0.68777927484130
H         6.10161259598636    3.08715276070793    0.32470672162012
H         7.70832650308467    2.94812011814435    1.06212031520032
H         4.72759318392324    4.57050271974759    1.03864632440457
H         4.88275686591049    5.93283428124798   -0.08869379745670
H         4.56231080756811    6.22323967744529    1.63210813402252
H         6.49286932771348    4.08954415203451    2.58803142441470
H         6.28194210822968    5.69393927560417    3.27620859316446
H         7.89159747467491    5.17771476065931    2.71156607699467
H         5.24626037133045    7.82067507447716    3.58982700095411
H         4.48281988345035    9.30611940395118    1.76063839578726
H         6.16555595549850   10.60800098512522    0.44869152369711
H         8.55364079003116   10.56997757711052    1.10004416642866
H         9.30357928664443    9.11412403080545    2.99478458397451
H         7.65570045177255    7.71823091537363    4.20950831411616
H         9.77324869098049    6.81365063133138   -2.00527359192683
H        10.38038566382040    5.37096115254002   -3.90474514078814
H         8.65077116976658    4.55799703778754   -5.45400745935305
H         6.29742086672334    5.19924984101256   -5.14456068981435
H         4.17699246546806    5.95948660767425   -4.62006008462009
H         2.07560485096046    6.97370265363970   -3.84833462226487
H         2.04119192792824    8.43799680474048   -1.87458446178817
H         4.12938858225910    8.89562254714680   -0.63169868932283
H         9.52056174925185    9.08172015278862   -1.11705284389516
H        10.44781841809750   11.22929942165278   -1.93570335493214
H         8.97723624963790   12.83715396089269   -3.09211151860269
H         6.59843764766858   12.30044985357936   -3.44550901267409
H         5.67670797452149   10.16461091427709   -2.64796529166819

