52
CSD_code = TOLWIA | q = 1 | S = 0 | Stoichiometry = C22H27N2Ru(1+) | MND = 9
Ru        3.51369255905138  -17.87823359787918   -2.46480792632486
N         1.41826699710278  -17.36415747694045   -2.12997329843429
N         4.08490968932358  -15.94781118550883   -2.11511120793524
C         5.44635622533202  -18.95227124868170   -2.96234880488124
C         4.38919930817540  -19.82153048980338   -3.31795770265268
C         3.44217875645443  -20.20574490667814   -2.35920255659856
C         3.56491557766900  -19.75131562799435   -1.02092490722731
C         4.63139912884258  -18.93513778654209   -0.64611900568423
C         5.53620027977456  -18.48741120898958   -1.63577792647463
C         2.90563277742305  -17.24298992775667   -4.30811716227360
C         3.56896095658248  -17.50953826646311   -5.49545551763135
C         3.05654630890492  -17.07967059683065   -6.71224474874709
C         1.87415744805105  -16.36604896109671   -6.75297052406853
C         1.20365263905550  -16.07480682601035   -5.57650424379622
C         1.71511631184975  -16.50963511489742   -4.36348898709703
C         1.07253804129613  -16.21193552240431   -3.02365547854029
C        -0.41911642572344  -15.89170887074996   -3.11342095373736
C         0.61476095518354  -18.53885869586786   -2.49783091068116
C         1.14205063693528  -17.03856119262586   -0.72779951717606
C         4.20642695172594  -15.55525071178334   -0.83746181800330
C         4.74711667147263  -14.34519496122363   -0.46091233613971
C         5.20984060704354  -13.45494931435613   -1.43063734435857
C         5.79076174847330  -12.13752511200149   -1.05757559558412
C         5.09825790142510  -13.87556586452628   -2.75260151801348
C         4.54481255331430  -15.10575712174616   -3.05004833954315
H         6.23320545974532  -18.72282956336976   -3.67138791478291
H         4.35294282328881  -20.25665578272630   -4.30990789734830
H         2.68945979854189  -20.94396206439975   -2.61289232169641
H         2.89296841063898  -20.14162521943841   -0.26351003687932
H         4.79190545907702  -18.68041881625124    0.39349240366456
H         6.39223856690620  -17.88656133722923   -1.34040448411302
H         4.51011088248931  -18.04172654574414   -5.49679823594790
H         3.58888221475643  -17.30149650332005   -7.62467343976096
H         1.47445978431934  -16.02981764322001   -7.69665146731680
H         0.28901518673790  -15.50501911203928   -5.61592961135837
H         1.58200709302299  -15.33645822131381   -2.58989393190351
H        -0.94827203375988  -16.61136360566098   -3.73144599299656
H        -0.53607171797361  -14.91008586810357   -3.56369366109276
H        -0.88040510628105  -15.85062564521022   -2.13059187869161
H        -0.45201627250052  -18.33870015083425   -2.37068755246806
H         0.87071711857327  -19.38104045081967   -1.85600002658203
H         0.80425258687990  -18.79862310168224   -3.54072758966636
H         1.57863514596831  -16.07372675668262   -0.47235879776609
H         1.56021114602903  -17.80885553428490   -0.07873579272760
H         0.06692014224270  -16.98955205328458   -0.53307114898702
H         3.85332976672589  -16.24348991045028   -0.07843874446505
H         4.81023490780529  -14.09275675712513    0.58611619985729
H         6.65955774735080  -12.27706462774548   -0.41585399799114
H         5.06432707815276  -11.55161856105989   -0.49638949645198
H         6.09040185142046  -11.57678634862321   -1.93776421302729
H         5.44344979170620  -13.24691528895688   -3.55785814470324
H         4.45179756339999  -15.42831394106713   -4.07889389319534

