43
CSD_code = TOLXAT | q = 0 | S = 0 | Stoichiometry = C17H15BMoN6O3 | MND = 8
Mo        2.81702700433354    2.28356166569405    2.17818009574482
C         3.20774523687526    2.66137917193217    0.07233531492080
C         3.45247754476916    1.24563112288456    0.20331601254124
C         4.91295618466136    1.03753480620531    0.36326048237297
C         5.47311546693353    2.39099914644033    0.65299556848819
C         4.32831254544370    3.29570123785892    0.65671761356664
C         6.76725904961941    2.65275535368440    0.84180436150844
O         5.52162107115249   -0.00389629285312    0.26229612675776
C         3.01373835111558    0.34966722183700    2.10619362956946
O         3.13804059557111   -0.79153481009126    2.16511118486203
C         4.51558294059973    2.31090293651074    3.10102191099784
O         5.52015086596308    2.30072583116967    3.65312958427142
N        -0.21503658468462    2.88160678861432    2.08282231131231
N         0.75750896849365    2.24821966605927    1.42389164505675
C         0.19639070682505    1.65255926905894    0.38081662034932
C        -1.17342795386627    1.90899484051798    0.35709443161256
C        -1.39170146969373    2.69705900396812    1.46500648777153
N         1.14037598649144    4.65401855270701    3.18057284042436
N         2.36083250768207    4.29066179109875    2.78254899269984
C         3.13749580988938    5.36487918071563    2.86385827364062
C         2.39691275870247    6.45656682743850    3.30920208398650
C         1.12746854861285    5.95349061930621    3.50479067999688
N         0.66789894313603    2.56745474841231    4.35049544983390
N         1.81518706951399    1.97111344169309    4.02305183564987
C         2.13187244581351    1.13914465258504    5.01102077099947
C         1.16157338611065    1.20231581152837    6.00599912915320
C         0.24777091653365    2.12871439244822    5.54145590152932
B         0.04838508355586    3.60432853553769    3.39849053595381
H         2.50947963777607    3.11722927423834   -0.62438574176098
H         2.90153277919364    0.50660266447927   -0.37396081285039
H         4.48780588331723    4.36632273542633    0.56475680475070
H         7.13036835332961    3.64421687397234    1.05469826270820
H         7.48948187063790    1.85618485373138    0.80177593886969
H         0.76547181965965    1.06426573039323   -0.31236409567766
H        -1.89004382052400    1.56730208555606   -0.36040443119825
H        -2.29410432446446    3.13029276833800    1.84516057408255
H         4.18400648667126    5.31969393048274    2.62889620244372
H         2.73840491530074    7.45805297438635    3.46904703403203
H         0.23485784435284    6.43299325714505    3.85161653877562
H         3.02599128379064    0.54386874308647    4.97050150122920
H         1.12999258089095    0.65647212522573    6.92583266132045
H        -0.65783625719514    2.49303401623733    5.98272484970778
H        -0.93634303289047    4.08041245434012    3.84442483799612

