38
CSD_code = TOMBOM | q = 0 | S = 0 | Stoichiometry = C13H7BCuF9N6O | MND = 4
Cu       14.35405139581021    3.37167173105972    7.75915673385397
N        11.66697847387628    3.37155038443249    9.07056979350973
N        12.96998647941909    3.37182708169632    9.31272213095678
N        11.75810862292569    2.13708768624924    6.93509349935581
N        13.07296153615114    1.97543600160344    6.90082372851066
C        13.13273344179413    3.37192468000381   10.63207499842641
C        11.88749522719122    3.37170892322465   11.26642440467107
C        10.98425208976981    3.37148748934105   10.22253395996273
C        14.48756774195103    3.37207955752458   11.25074605582905
C        13.32079262019424    0.83921953173462    6.25687540281685
C        12.12018359930828    0.24403246502682    5.86020410313561
C        11.15186738719715    1.11451661873654    6.31867268746733
C        14.71169396737944    0.35213272727982    6.04187671873563
F        15.21660036802860    4.44617399787907   10.90181440131048
F        14.42114828080463    3.37261474098225   12.58897122856102
F        15.46598105875042    1.22430595839501    5.35092818603974
F        15.36502442964433    0.12604578355196    7.19479779386954
F        14.73345068449083   -0.79934956267810    5.35754783518341
B        11.14871227012731    3.37145665097126    7.62199109532534
C        16.14423788499210    3.36911101116143    7.82502275696696
O        17.27488575085848    3.36528741210761    7.86160666589856
H        11.69482997456632    3.37173733849508   12.31836490508226
H         9.91395797033490    3.37129438117428   10.23863677539130
H        11.99614072435169   -0.67378377065281    5.32551266613508
H        10.08566737560983    1.06108257761893    6.24023703575400
H         9.97160456741515    3.37137493855269    7.57183504675402
F        15.21635273135540    2.29750499075603   10.90268335754214
N        13.07280878786193    4.76793886064331    6.90097728942054
N        11.75796673961357    4.60592192622109    6.93514272199014
C        11.15147970255021    5.62834467810431    6.31874453163734
C        12.11956750834171    6.49913983533676    5.86038655119024
C        13.32032042101437    5.90427894447628    6.25709336760912
C        14.71105918832703    6.39186110374495    6.04213767786995
F        15.46582113937837    5.51969770385074    5.35168447272362
F        15.36407162965676    6.61880163364904    7.19504340725657
F        14.73241074945589    7.54304835146246    5.35725505997476
H        11.99526074699553    7.41695966943161    5.32575680374952
H        10.08526673250577    5.68147596685804    6.24025414953026

