42
CSD_code = TOMDOO | q = 1 | S = 0 | Stoichiometry = C12H19F3NO5RuS(1+) | MND = 8
Ru        0.27761135421397    0.94186002673743    3.90548315699312
N        -0.68828613962006    0.00362729826255    2.88919768194721
O        -1.28856898213684   -0.40687599713868    2.00968978279759
O         1.57485397347874   -0.73190770712852    4.84111879632919
C        -0.13175785154361    2.97045347981591    3.01610707862989
C         0.38048886925059    3.20428762954713    4.35399712484843
C         1.65754426401644    2.59018678059368    4.45578935262756
C         2.01657832119565    2.08926400360047    3.15131705640390
C         0.89775599331664    2.31104358749863    2.26070750245979
C        -1.40978729804472    3.52814800860567    2.50754929684898
C        -0.34080396359479    3.98072590011660    5.38112846787565
C         2.59122997078421    2.71118863837544    5.62558038882201
C         3.33410979954830    1.55002373183970    2.73810236402116
C         0.91849911579356    2.10552502985311    0.78189159065086
C         3.38345545350216    4.02035814842657    5.54284292992443
S        -1.80102351007442    0.97436580729808    6.01696680799997
O        -0.31277713387283    0.88181479306898    6.04305703308887
O        -2.23149822798354    1.40765589052807    4.70695491978334
O        -2.36552416002760    1.59277685935948    7.15714067977907
C        -2.16558409768628   -0.86965024656184    6.03668771251220
F        -1.92296848944807   -1.42176703661931    7.21226282611025
F        -1.24464420297862   -1.38610291047804    5.16431124836119
F        -3.35902134923340   -1.21813242827603    5.60735480119075
H         1.40573940762025   -0.60288010276107    5.78896202442693
H         1.32994710648147   -1.64499272223016    4.63624844132921
H        -1.38824035985293    4.61688134754452    2.56627259265726
H        -1.59624563073489    3.23551487711721    1.47822587625939
H        -2.23555804163998    3.17946589335408    3.12951158818138
H        -0.46399194828063    5.00909545125183    5.03318883414298
H        -1.34459452286469    3.57559759530590    5.53266736549186
H         0.17966606268817    3.98351129514037    6.33491144676069
H         3.28522253763472    1.86781550140809    5.63881227641438
H         2.01836733799667    2.68364548591329    6.55500180106258
H         3.86483620448641    2.31026338340203    2.16070281150926
H         3.94497716638560    1.27886116782570    3.59455953755733
H         3.21823113366633    0.67834031190705    2.09409429503826
H         1.32619553038669    3.00004182401295    0.30729076875327
H         1.54827473475443    1.26303855282500    0.50551151027556
H        -0.08083929629766    1.94074418138271    0.38606388239052
H         4.05016594904017    4.09916790640085    6.39630565340064
H         3.98066473175030    4.05358920658169    4.63524095645963
H         2.71510018792545    4.87722955631787    5.54798973791574

