70
CSD_code = TOMHIM | q = 0 | S = 0 | Stoichiometry = C31H35Cl2OsP | MND = 9
Os        7.51876740455670   11.50820561761183    7.89469478586298
Cl        7.99075660303141    9.89787343738815    9.46819815438257
Cl        9.74809572217345   11.65958051120575    7.31634570632626
P         7.24221699678209    9.82598912304746    6.41691640362687
C         6.87357382430607   13.69622940432316    7.09230692654860
C         5.75837310722682   12.85571601234375    7.34735030800759
C         5.36696968481387   12.54751660618650    8.67081250052526
C         6.18766828944392   12.89312181255235    9.74471155627784
C         7.35623380252243   13.63688949362259    9.48309812916731
C         7.66239272067448   14.06741111186120    8.19220557537965
C         7.07599335790204   14.28848078957883    5.71662551980984
C         8.54494056143367   14.33874858333553    5.29645112280473
C         6.45660883709888   15.69140757628929    5.69057278607343
C         5.83644914766320   12.49383653169490   11.14286443517005
C         5.93610723141305    8.57031131641561    6.80687428975317
C         4.70918566139410    9.18450723536842    7.39785867264850
C         3.68395090202099    9.68810247083136    6.60531783117364
C         2.54641323578590   10.22977145041138    7.17833773457652
C         2.41234156716238   10.26724143303560    8.55604660153990
C         3.42943831883831    9.77032836403118    9.35574550838056
C         4.57241208262061    9.24139464994838    8.78203724097288
C         8.74819740338816    8.76395551342883    6.13705014963840
C         8.51100068162257    7.29132418186202    6.24220315617789
C         8.51895528965634    6.68329933828133    7.49498363306264
C         8.30122181015794    5.32315664508491    7.61646608673130
C         8.07430957206119    4.55101991079614    6.48863784675000
C         8.07152617456834    5.14706230443472    5.23957177521315
C         8.28852328950500    6.50872946684192    5.11642555306093
C         6.78838649821719   10.44986614605120    4.71747722907677
C         6.93188354011042    9.46654990281814    3.60452680466183
C         5.90959901398938    8.58261033624382    3.27678328608740
C         6.06602115276864    7.66739786617415    2.25103678985466
C         7.24567618546818    7.62664768590696    1.52791766495889
C         8.26307541923807    8.51691105404060    1.82928736974618
C         8.10652343416209    9.42890581954203    2.85768100606118
H         5.05812087647338   12.65272667803562    6.54220359621119
H         4.42470338958227   12.04789912772038    8.84491463962194
H         7.98839962841220   13.93492121996810   10.30839026650299
H         8.51343068584306   14.71792167382967    8.04463069194291
H         6.53195870381928   13.66323035672112    4.99804107764148
H         3.76380121774919    9.64101503207484    5.52841498079256
H         1.75777311176014   10.61532946784721    6.54811840681176
H         1.51946197733534   10.68011954858488    9.00278279084688
H         3.33155062703630    9.79462251699633   10.43155161663010
H         5.36962560218472    8.86546846211364    9.40547693650115
H         8.69660301875586    7.29055731707514    8.37108801425896
H         8.31070628158761    4.86312277778570    8.59353286107240
H         7.90546071030143    3.48840762511437    6.58297646615926
H         7.90223025706056    4.55073563732768    4.35468958393651
H         8.29272219254328    6.96389885014465    4.13772880071010
H         4.97375055542379    8.61738232569291    3.81524629241013
H         5.26203892333682    6.98630853824231    2.01404692807030
H         7.36862067761545    6.91132249476755    0.72876392339085
H         9.18190264454171    8.50093390108355    1.26204281295156
H         8.89899975156698   10.12995676277161    3.07857874070579
H         8.61918285793498   14.56499246260478    4.23530120898757
H         9.03356243232153   13.38526154369686    5.48911506419116
H         9.08110796326829   15.11150732435838    5.84169876575785
H         6.56044757248352   16.12655105699682    4.69948479257912
H         5.39842865118077   15.65202256145461    5.94304176212549
H         6.95655253634920   16.34094831687766    6.40624644463007
H         6.16467819659700   13.24428688516876   11.85922494962273
H         6.33859813053935   11.55427231877251   11.38385862002691
H         4.76439778018163   12.33962050789113   11.24426666914124
H         5.72488135262300    8.01104521731218    5.89288132111410
H         6.39212590329064    7.89877238559086    7.53717879250076
H         9.45768802889213    9.08111444804997    6.90665075335287
H         9.15615249042734    9.03175547103675    5.16125206132330
H         5.76121737808238   10.81172615163893    4.79769542095188
H         7.45082936918913   11.30424333204092    4.55386380645702

