54
CSD_code = TOMHIN | q = 0 | S = 0 | Stoichiometry = C21H7F18FeN3O4 | MND = 6
Fe       -0.54105663440520    1.79861891000714    5.69991396818516
F        -4.16241022493305    0.60127406775989    2.30604655873208
F        -4.42693688149147   -0.05311764579216    4.33791131644035
F        -5.15293173358704    1.87539191642306    3.72350148491633
F        -1.95707561078449    5.29976754496520    2.18184309492643
F         0.02467172877644    5.39030071740427    3.00929132931953
F        -0.37586948441182    4.14912520663388    1.29504594439374
F        -3.02349007492400    5.65164415011669    6.21780922885873
F        -3.18379759321685    4.75560034510784    8.16903601119148
F        -1.87221830412616    6.42937212278227    7.85928079654304
F         3.48221382078676    3.33463800041698    7.02247121961441
F         2.83671981775863    5.37996874941309    7.21706647636883
F         2.61227751927818    4.02087886564386    8.86620336408364
F         3.78899212085969   -3.41470879999710    5.41844358378502
F         5.08704268451600   -1.83454338953033    4.75698838511907
F         4.61882346625695   -2.03989884036763    6.84803185539845
F         1.53188975365864    1.99444687811498    2.66294644657407
F         1.51133836782858    0.02875900792838    1.81840727293577
F        -0.26997720689341    0.79862344228899    2.73493226937620
O        -2.17501152091441    1.08282261233300    4.89774501631353
O        -0.28045743259144    3.07080683830924    4.19500616669025
O        -1.63709758782621    3.25889359159313    6.38346625306307
O         1.06054787030510    2.57416298990500    6.50540389757349
N        -0.82008922627902    0.75924981960201    7.22906463236292
N         0.69169390107295    0.36079777492101    5.22487062943669
N         2.09386119338547   -1.10902723359800    6.46730270077173
C        -4.14312754759474    1.00676691792526    3.58219278542682
C        -2.78933084431667    1.64110482419742    3.96226515496420
C        -2.42274074735145    2.75535951228505    3.20788399665608
H        -3.09931633688106    3.13055622485922    2.45879911728035
C        -1.18975669319105    3.37982191778127    3.39303730544621
C        -0.87270332069949    4.56920348546656    2.46643297601834
C        -2.32129126536356    5.30557020342727    7.29849220825772
C        -1.21190038898555    4.29946322038994    6.94604004201729
C         0.09939510391311    4.60837590464725    7.29629009168593
H         0.32448617480022    5.55381956813397    7.75926155700890
C         1.13106298708711    3.70713470680476    7.03828070360468
C         2.53103726983888    4.11845372967944    7.52639480778962
C         0.11911780887961   -0.17720206933078    7.45183984110102
C         0.15207372899888   -0.95234595723273    8.60831330805369
H         0.94535644031197   -1.67133367103893    8.73175452355885
C        -0.84343614157451   -0.76913258044058    9.55034224781434
H        -0.85307144272762   -1.34711942036641   10.46077409989032
C        -1.84058505077382    0.16647788797546    9.29235526182317
H        -2.64674172649311    0.32423387780451    9.99046877921526
C        -1.79046539211715    0.90649754483141    8.12404488209148
H        -2.54090399527108    1.64436887926510    7.88687817744502
C         1.04082330105738   -0.33002772506634    6.34743605354386
C         2.90475838412314   -1.23156286307938    5.42945921686984
C         2.63063791925349   -0.62026246035144    4.20984062149461
H         3.26219773719806   -0.74723014295163    3.34556012363428
C         1.48011888180957    0.15681433552884    4.16639267479962
C         4.11034368225897   -2.12710301380276    5.62168577920821
C         1.06350874571256    0.76254952027963    2.84465376032131

