104
CSD_code = TOMJOV | q = 1 | S = 0 | Stoichiometry = C56H37N7O3Re(1+) | MND = 6
Re        2.93376470293601    1.55922033928411   14.07559046015914
C         1.38394506068825    0.50647622260830   13.51269858798705
C         2.91025382355138    2.61099029444881   12.42423537503647
C         4.10799335977535    0.20994893050551   13.28194472622352
O         0.45245916264560   -0.09146933499256   13.23386776701780
O         4.82799485365550   -0.56868464475875   12.86033197322498
O         2.90335373345375    3.25721972375890   11.48627985115737
N         4.46779609633196    2.77586787362624   14.94750518595179
N         1.85929512950901    3.06428458730603   15.15873896304902
N         2.23301643315600   -3.29640476433541   21.13342509564182
H         2.74611286736603   -3.10687496154746   21.98583409074999
N         2.46579860655197   -4.65212336979197   23.74186346720682
N         4.36803667804859   -2.70724618037000   24.68397670076187
H         3.90089052264953   -2.92427617940888   23.81215097068808
N         4.14355681192945   -1.35909916010496   22.06968046791254
C         4.98900867449153   -0.50493902017635   22.69854279411283
C         5.36879364132926    0.57872574396015   21.81022547674923
H         6.03732282978443    1.37877375505034   22.05946242973592
C         4.72434301395438    0.35716360211342   20.64871437384764
H         4.73454504653822    0.96836518834530   19.76566386839351
C         3.96789852119563   -0.87049558345127   20.82948969599147
C         3.11001350913904   -1.39875863302375   19.84812920858854
C         2.29364021101469   -2.52495492658959   20.01756785644019
C         1.45175005134649   -3.13140826928933   19.04248080149677
H         1.30279017551230   -2.78434653038174   18.03891287819296
C         0.89546959652735   -4.24127944786973   19.60464638692520
H         0.20325605505619   -4.91911321655758   19.14668309790381
C         1.40222193728220   -4.36009191669762   20.92891750466757
C         1.11033696894200   -5.38341692880271   21.82834683910463
C         1.63927387404162   -5.51676429997028   23.11736865235329
C         1.37859444889355   -6.67773447470933   23.95249093257492
H         0.78014492567468   -7.52058469820309   23.66968948835054
C         2.05645949269648   -6.47703399387895   25.09786124963980
H         2.13428338321616   -7.12242121284021   25.94976380461437
C         2.72456334188482   -5.19473528230039   24.95430033035386
C         3.53257363324978   -4.64127751028784   25.95098908835647
C         4.27030350845396   -3.46235918022865   25.81248668573439
C         5.03014888403475   -2.81046489445724   26.82275439835883
H         5.13058180828223   -3.15087381563678   27.83401007845001
C         5.56856950811418   -1.68411102573415   26.27387687097547
H         6.18372555539727   -0.95564291814985   26.76353925386587
C         5.15132431819491   -1.62061732170748   24.91461894920507
C         5.46172889267948   -0.60345433760112   24.00577767984354
C         5.77431240918915    2.62274764700435   14.74401276980464
H         6.06331789206926    1.90052092390094   13.99111425083597
C         6.73718813188034    3.33807836669043   15.43312096266328
H         7.78187903108453    3.17539187206086   15.22594896483749
C         6.32448305182224    4.25576134791012   16.38757227778336
H         7.04228212602291    4.82604737477429   16.95556331608961
C         4.96861880538994    4.43588423429365   16.59093283197798
H         4.62879560005126    5.15213374418058   17.31983496590059
C         4.05511662619967    3.68867735791126   15.84878954744635
C         2.59863807183701    3.85902428114173   15.95723301140335
C         2.00096240966181    4.80223099048002   16.79195766692105
H         2.60033774782712    5.42813641917207   17.43125419980714
C         0.62506058121317    4.93948972891425   16.79348594556817
H         0.14952371997623    5.66575821853930   17.43337346186912
C        -0.12402773356555    4.13412076178659   15.94868516819811
H        -1.19737198247247    4.21486067161838   15.90238822256501
C         0.53654948298791    3.21357405374737   15.15512146251997
H        -0.01877993703068    2.57400678285755   14.48096373107675
N         2.98652642731260    0.52379716384279   16.02948129156285
C         3.06442840943036   -0.73553612620140   18.54924696185589
C         1.86452913183036   -0.29666699205845   17.97649645003488
H         0.93352387763796   -0.41878449490809   18.50673106559184
C         1.87337112076012    0.31543401708397   16.74453775160052
H         0.94198016538266    0.65361336506319   16.30664494179068
C         4.13752558489586    0.09569165283557   16.56498173134613
H         5.03372503168478    0.23543373453029   15.97273594282238
C         4.22288188877872   -0.51497488736025   17.79425380789431
H         5.17977474250576   -0.85229634109089   18.15973888771606
C         0.17354907861503   -6.43126568332912   21.36536473295590
C         0.51432499563525   -7.26939143133234   20.30808866705676
H         1.47827055091088   -7.15837410650005   19.83257595273787
C        -0.36287150383968   -8.25170751256822   19.88522360813189
H        -0.08515160056099   -8.90299977566395   19.06992760561331
C        -1.59201153940355   -8.40164863301101   20.50557873688732
H        -2.27631080554983   -9.16722160453918   20.17295080957246
C        -1.93902038725651   -7.56886113028127   21.55651804073966
H        -2.89601861301398   -7.68202389188005   22.04350732264935
C        -1.06043807938477   -6.59208496029084   21.98848949762534
H        -1.32898106533765   -5.94053209780321   22.80747132149810
C         3.61598626693500   -5.33799347699228   27.24935865447529
C         2.47069201170642   -5.54175621112860   28.01491411963056
H         1.52058873277682   -5.17486568873197   27.65441771111505
C         2.55108542837644   -6.18924929130744   29.23396804009791
H         1.65784698790157   -6.33591085426969   29.82253911698108
C         3.77202104349942   -6.64972960655635   29.69867964274794
H         3.83233677798659   -7.15972786690249   30.64800669508927
C         4.91503923968744   -6.45473765104048   28.94101859296451
H         5.86814641915480   -6.81624562714855   29.29703183659362
C         4.84068319232452   -5.79766404925390   27.72654205525614
H         5.72974712840568   -5.65562528366579   27.12931221298780
C         6.36280607059763    0.46223742506788   24.49996938512134
C         7.68135911757802    0.16848357043146   24.83364502533427
H         8.04504551886340   -0.84202949114589   24.71628190384180
C         8.52323933009141    1.16313356653280   25.29740468292019
H         9.54619224084959    0.92565825489100   25.54843709572475
C         8.05613172282957    2.45885931560243   25.44271399573578
H         8.71263349486480    3.23327240757287   25.80948199312475
C         6.74297751359164    2.75726084478621   25.11907794704984
H         6.37232945119263    3.76487237221184   25.23697769051324
C         5.90093138408621    1.76655677194888   24.64722198556116
H         4.87335383236205    1.99487730044064   24.40226737457509

