61
CSD_code = TOMMUD | q = 0 | S = 0 | Stoichiometry = C32H24CoO3P | MND = 5
Co        6.34802217111107    6.22436018434245   11.94254059533835
P         6.60619619104725    5.00947007819149   13.79273807633936
O         8.76818618290525    7.77985890116518   12.56242711565561
O         3.92439352337743    7.35980523508387   13.17234016827573
O         6.37715875617383    3.76880707217446   10.33879367619639
C         7.81944497766807    7.18908557611926   12.30158109639983
C         4.82481340561812    6.92480437270363   12.61023433074725
C         6.37247337321361    4.74378160340115   10.94692720809040
C         6.13624392086617    7.27964336638433   10.15191752842749
C         5.82934077574084    8.70534861090293   10.38026499603150
C         4.48208285860201    9.13144217994977   10.47953741269374
C         4.16424634121540   10.44192199433815   10.67458198735865
C         5.17187891636117   11.42475664058081   10.78330898784476
C         4.87954552017681   12.78710908654826   10.98839878192044
C         5.88334792471282   13.71144710460942   11.07923033223983
C         7.22437934616433   13.31216775740140   10.96843648086356
C         7.53978481922571   11.99756747884800   10.76874275446489
C         6.52776646844488   11.01842077033100   10.67173475034889
C         6.82150238664629    9.65802062833143   10.46736430482782
C         8.31906233118174    4.61914758217211   14.27389405120561
C         9.22080516576262    4.30297711805537   13.26157251281177
C        10.52845794646377    3.98031083164059   13.57117621601394
C        10.94607075326607    3.97895240887945   14.89272722674148
C        10.05205307386376    4.29444884797973   15.90266705411566
C         8.73973377755529    4.61229830084989   15.59988549785444
C         5.93774897841319    5.75536975811972   15.31331880487082
C         5.02997438651322    5.11005098729457   16.14464591272080
C         4.54677724862503    5.75828773967804   17.26857942326127
C         4.96282540841498    7.04440991430790   17.56750773055754
C         5.86795319255004    7.69099048598972   16.73961699684116
C         6.34981489040236    7.05211198320972   15.61423910577240
C         5.81982574936963    3.36722632040957   13.77582641541889
C         6.46775527272367    2.21210486680376   14.19746340036869
C         5.80624643266054    0.99691185117254   14.14878761167789
C         4.50368888819732    0.92715052500639   13.68445037597941
C         3.85521631378726    2.07746702876776   13.26186872103771
C         4.51181415909428    3.29197032513143   13.30154979658289
H         5.32514824767183    6.81059459296075    9.59003371797061
H         7.06510047144773    7.17541047715897    9.58660957925152
H         3.69815234116917    8.39195100433577   10.38896342606483
H         3.13016712765303   10.75015601784740   10.74466626617232
H         3.84470279376041   13.08914191220074   11.07225140974079
H         5.65216679676999   14.75525123936595   11.23608558294423
H         8.00534675306264   14.05546011626037   11.04228627962531
H         8.57142974391835   11.68580155827041   10.68395496236255
H         7.85883868074327    9.36506197718355   10.37662219636774
H         8.88824385511045    4.31899279367551   12.23119677738729
H        11.22435125816718    3.73574698540165   12.78238549937933
H        11.96964575350800    3.73498676526908   15.13531003653191
H        10.37729917118839    4.29380441563251   16.93273839982070
H         8.04384792443596    4.85537714825083   16.39070207954884
H         4.70121778688599    4.10612888865651   15.91571082072874
H         3.83948930098762    5.25500782602133   17.91144706846638
H         4.57861483525474    7.54628653644760   18.44299409476189
H         6.19070087946970    8.69585787070190   16.96810441891887
H         7.04671235912834    7.55443315698788   14.95539461364063
H         7.48482827959540    2.26088550910838   14.55983339369039
H         6.31309104686854    0.10028274148546   14.47421269267717
H         3.99426293954077   -0.02419334940834   13.64656901276305
H         2.84066964864899    2.02476149808030   12.89542834123410
H         4.01924017690411    4.19450680122762   12.96122189205166

