65
CSD_code = TOMSIA | q = 1 | S = 0 | Stoichiometry = C33H25F3N2PRu(1+) | MND = 8
Ru        5.37905514846245    9.51280083817027    3.07599811091516
P         5.17589994541718    7.27448770125605    3.59161688599930
F         7.83418784013564    5.58281781795774    8.59580917888210
N         6.90299576045836    9.11668285955335    1.84239276967929
C         4.80890081735164   10.23661259283934    5.13591793094428
H         4.46107065319284    9.67782964805113    5.99694624240157
N         4.42815726326802    9.18530405029368    1.34527997473112
F        -0.30131374150631    5.09685981095323    4.03119691855895
C         6.16851005919036   10.59417759666471    4.88753680456092
H         6.99381333934078   10.39957130390779    5.55745104993033
F         7.83498853835757    4.47024170697152   -0.87214546779199
C         6.17658616790968   11.49311717450695    3.79358917828066
H         7.03657997387050   12.03773188572374    3.42672658461587
C         4.84320842529251   11.67015033817020    3.34778266898209
H         4.51658984855953   12.39308501406154    2.61241640230202
C         3.99179248271919   10.90268810371753    4.19091148908997
H         2.91343071802281   10.97244922257080    4.22268256411404
C         8.18777109950750    9.15521393538700    2.20315219332472
H         8.39357812628442    9.43334521468812    3.22853950830181
C         9.22242702267490    8.86179050437657    1.33936123066727
H        10.24177291386795    8.91120305895270    1.68521426222942
C         8.92616514027496    8.50214953119471    0.02903269966423
H         9.71033066538164    8.25147107175287   -0.66649781229588
C         7.60278559070401    8.48336609673957   -0.36397474920323
H         7.33859735005398    8.22199650108438   -1.37488250573277
C         6.60763709130260    8.80640257979640    0.55707276821257
C         5.18348725386175    8.87338471974024    0.26399421644557
C         4.61341152227389    8.67723864525219   -0.99308370992935
H         5.23787402913858    8.42929203057190   -1.83490933868564
C         3.24757396640661    8.80898368603523   -1.14891138580724
H         2.78687422398520    8.66570081341449   -2.11275071719469
C         2.48154032861449    9.13348086232006   -0.03422369554583
H         1.41298925238998    9.25011007256667   -0.10895936193662
C         3.10861362680971    9.30742510708179    1.18271777472983
H         2.53228706758613    9.54321488474591    2.06666969155235
C         5.94504804086808    6.71403690157241    5.14558664316857
C         5.34744995787990    5.78819298962193    5.99600721846983
H         4.38325240011024    5.36768305553624    5.75457534100309
C         5.98350098362750    5.40406103857966    7.16200688467539
H         5.53554596095728    4.68952097436475    7.83407096896810
C         7.21801810063993    5.95228504212518    7.46888938093135
C         7.83060316949768    6.88147312560101    6.64188863409097
H         8.78992458368257    7.29106425851233    6.91658700036976
C         7.18227240727354    7.26086911899805    5.48414559559629
H         7.62966292375290    7.99372720927728    4.82629451184359
C         3.50026907313561    6.57009589275713    3.69044173330919
C         3.24631695827927    5.22439142780135    3.42570733169720
H         4.05414543366714    4.56935251194014    3.13269574856316
C         1.96386811150081    4.72428499908819    3.54040662873154
H         1.74561769331326    3.68747123678205    3.33917680167997
C         0.94185675051089    5.57757987171204    3.92826635834780
C         1.17222276130878    6.91386950470160    4.21310241155296
H         0.35312553001631    7.54253498443039    4.52467572726270
C         2.45916569521619    7.40189864289732    4.09194901081152
H         2.67345460208397    8.43758556625460    4.31989305499615
C         5.96604662953451    6.24194685452144    2.31172664806040
C         5.27053237521454    6.01873392804344    1.12239514629194
H         4.23140704558248    6.31137687996411    1.04671291736461
C         5.88952843589710    5.40401928183913    0.05187583105309
H         5.36301015094562    5.21385343931616   -0.86991229116937
C         7.21797577764881    5.03045441111518    0.17607589846402
C         7.92761499461033    5.23094746283460    1.34832150319905
H         8.95492637626571    4.90961088654306    1.41286381368032
C         7.29590726212247    5.84243017359032    2.41475055861068
H         7.83586030369669    5.99877134860791    3.33695263338660

