77
CSD_code = TOMSOG | q = 1 | S = 0 | Stoichiometry = C36H34N2O3PRu(1+) | MND = 8
Ru        2.17807042446282    1.46668246800628    2.79185945931746
P         3.98683660069558    0.20608948613483    3.49553989241841
N         1.51455792877497   -0.06788159605474    1.71434360052819
C         0.15231995082295    2.24609215339099    3.39427341857608
H        -0.81791920259984    1.92160159362049    3.04137300066229
N         3.11807306239872    1.75785656638261    1.05972714675523
C         0.81151813935935    1.77850674642902    4.55710217067748
H         0.40226384896577    1.10086801186711    5.29280821102945
C         1.97232987114130    2.58700843377067    4.74380231245925
H         2.60757837547693    2.56808840800686    5.62160907954347
O         3.41449640455700   -2.33564078992565    8.85162140344543
C         2.02893539981983    3.53588034590780    3.69513236125745
H         2.68902205183489    4.39087929461955    3.64830847907816
O         4.56778267279821   -4.02172591163993   -0.64475141387107
C         0.90705112520566    3.31423992538966    2.84911139361948
H         0.59392734574482    3.95561004076520    2.03624808464638
O         9.28926989491097    2.87981323593001    3.87060887645859
C         0.61579801529801   -0.95582870961091    2.14778774317031
H         0.22170027151859   -0.79653597640266    3.14306343234516
C         0.19311892117638   -2.03003539423913    1.39442433892352
H        -0.53712078995474   -2.71362019547505    1.79562205834522
C         0.72559335933912   -2.21434564778420    0.12226997281456
H         0.42467582058846   -3.05183887500111   -0.48607265709425
C         1.63777038698279   -1.29197083790024   -0.34832981147528
H         2.06477099683500   -1.39731299451162   -1.33145989078397
C         2.00762030400457   -0.21821143995177    0.45984332593787
C         2.91236638874270    0.85099264072415    0.07246451116846
C         3.50388588133163    0.98943791935101   -1.18256145522156
H         3.32449554858861    0.25088377006101   -1.94563957232813
C         4.31790599836899    2.07513042933583   -1.43459193902324
H         4.78428294824191    2.20258838696012   -2.39791766358750
C         4.52193947487867    3.00106464846225   -0.41599155283095
H         5.14856866117349    3.86439185399002   -0.56805966999836
C         3.91041839566366    2.80224918091277    0.80398693724583
H         4.06888521376763    3.49773483996398    1.61655651453404
C         3.82867801481614   -0.56675978549389    5.13094863215208
C         2.60057679541412   -1.11238214862793    5.49215426649436
H         1.77596547426458   -1.05630886859861    4.79364828210966
C         2.41615447478081   -1.71877723909750    6.71903669077771
H         1.45184622865450   -2.13589436171517    6.96364157534663
C         3.47364383501003   -1.77925069131008    7.62750092825020
C         4.70579274776464   -1.21847141156624    7.26949241762826
H         5.51150067755795   -1.26750119147219    7.98441342328123
C         4.88271869210953   -0.62159850961289    6.04312982160676
H         5.84119830696028   -0.19344630218603    5.79142664972912
C         4.28621371782258   -1.17874081304970    2.35494950894655
C         3.69223546895182   -2.42106368103351    2.54249444544859
H         3.16884793966772   -2.63067720871119    3.46437174643110
C         3.77549320677341   -3.40340087602844    1.57335475618149
H         3.31055281558252   -4.35908040825642    1.75540819346266
C         4.45256116158595   -3.15330695224936    0.38084505003151
C         5.06551665607686   -1.90832984504775    0.19705521592178
H         5.60562473077680   -1.73567267531367   -0.72025883073524
C         4.97546792913582   -0.93498760719296    1.16364449212171
H         5.46208564914557    0.01990390175748    1.01309724677968
C         5.59919463340468    1.03059158256261    3.56716696084297
C         6.79515246136255    0.32041959886581    3.42971848690497
H         6.77052469299912   -0.74377716990337    3.24393252051204
C         8.00107397842074    0.97058789904258    3.53545272898954
H         8.93243379249240    0.43696807924523    3.43243158964327
C         8.05543040881939    2.34796238424874    3.78972719133629
C         6.86275617273544    3.05500123234543    3.93950169832277
H         6.86944956062153    4.11333960591179    4.14698094689071
C         5.65413757335191    2.39346409851298    3.82960273262335
H         4.72926492219466    2.93947604506604    3.96207881969465
C         2.20736737616117   -2.92092131253630    9.28873940876485
H         1.39993522451073   -2.18438089869682    9.33704257240071
H         2.41038570584222   -3.29716465851104   10.28938627670953
H         1.90953277386046   -3.75264434375855    8.64354893929452
C         4.02281194297899   -5.31711326114459   -0.51474757261936
H         4.47212562891877   -5.85762902899981    0.32272716073291
H         4.26286311856808   -5.82988540457195   -1.44406680901703
H         2.93636571349847   -5.28291644828405   -0.38903843506996
C         9.43293576576886    4.25511781910971    4.15185209111191
H         8.98018995037018    4.87279558342277    3.37058990783314
H        10.50535124900135    4.43770968404915    4.17795761038050
H         8.99875314033081    4.51200357734491    5.12234856298286

