47
CSD_code = TOMYOM | q = 0 | S = 0 | Stoichiometry = C22H18N2NiO4 | MND = 4
Ni        3.77607790167428   10.84645281206840    4.73808814609607
O         2.36604096634547   11.55029258930587    3.78703046283199
N         3.55587597040201   12.05309260152278    6.13646435711009
C         1.57517979308531   12.50493942617392    4.06688603775050
O         3.99302083923404    9.65488941895065    3.35212406504371
N         5.19701956398026   10.12869134935509    5.70051525660373
C         0.53440159579268   12.85069822998171    3.12474994844014
O         0.53293893194467   12.08155846715652    2.00574377035504
C        -0.33832581220318   13.87006563892920    3.39667218554311
H        -1.11713465375236   14.12963754917695    2.69655468723029
O         3.78569014570620    8.28955929079714    1.13659267908714
C        -0.24472763048423   14.60563141165325    4.59375008400762
H        -0.95168151573766   15.40147466068495    4.77096511037525
C         0.71956923450385   14.31687910382149    5.50754652021366
H         0.79519130065629   14.87932462765943    6.42663196879166
C         1.64732172237463   13.27063939994413    5.27280904505072
C         2.63821232457560   12.98741198780539    6.22710946536587
H         2.61745251880364   13.61675312181955    7.11356468894886
C         4.50047300832686   11.86120577527938    7.15011581497242
C         4.61727753989869   12.60739495440072    8.32281007356654
H         3.95169377891104   13.42959224454614    8.53190051308955
C         5.59969743219639   12.30511635113045    9.24487708554502
H         5.68080677866982   12.88969894681252   10.14853636754644
C         6.47885535956941   11.25811965474095    9.01485344551220
H         7.24360092535837   11.02596569523712    9.74023984272811
C         6.38495963374181   10.50849741707519    7.85900161603793
H         7.08634316766012    9.70304997243747    7.71052075903234
C         5.40230133886187   10.79705751158817    6.91201031258471
C         5.95568813962341    9.11955612962281    5.34085605502228
H         6.75536463755347    8.80252736744503    6.00592065452641
C         5.84347500243449    8.38163653765742    4.15103852555956
C         6.73737650569577    7.31057844773119    3.89758847613381
H         7.49339250118751    7.08185181160362    4.63439822978457
C         6.64364200428200    6.58660811971214    2.75070972764183
H         7.32281612711821    5.77076732638357    2.55661740283572
C         5.65655087476605    6.88910589305042    1.79314160520603
H         5.61439011940030    6.29148979689212    0.89583521859445
C         4.77119191489540    7.91439517980486    1.99207782533208
C         4.83024855027736    8.71146849222411    3.19689934866137
C        -0.43517643310504   12.33269912836539    1.02223271244458
H        -0.24428123977390   11.61040942916225    0.23026214709575
H        -0.34578274799497   13.34678232338704    0.61661823399797
H        -1.45056077595146   12.18714461050390    1.40786652459444
C         3.63823988351427    7.58258542732559   -0.06594449666395
H         2.80411378497738    8.05334647234067   -0.58360138759426
H         3.40454316102536    6.52680811375360    0.11188668672880
H         4.53693582998030    7.65264918297255   -0.68906779936516

