47
CSD_code = TOMYUS | q = 0 | S = 0 | Stoichiometry = C22H18N2O4Pd | MND = 4
Pd        3.86651915527362   10.94901462903388    4.60826254879924
O         2.32722982076746   11.73162707584489    3.59024593351028
N         3.66777829140753   12.19593451187776    6.09385892635497
C         1.58494835036926   12.68371160417876    3.99320397834614
O         4.10641566028388    9.61748273203539    3.12972734838994
N         5.35376350733539   10.23623762102426    5.64921605111100
C         0.52626157696169   13.12192859546090    3.10573255752031
O         0.50836131797267   12.44756822283826    1.92560578628660
C        -0.34103325939807   14.11493313411047    3.46885146747881
H        -1.12955074345972   14.43262830270778    2.80480705883250
O         4.03523095323876    8.13699669246794    1.03413435151442
C        -0.22222006407152   14.74471573654090    4.72200123432998
H        -0.92357413774730   15.52157356923739    4.98446427635581
C         0.76355650054634   14.37935576313751    5.58246859218467
H         0.85657945281749   14.86884766702408    6.54119342536952
C         1.69780066206613   13.35842411602195    5.25569937315349
C         2.70071061689930   13.07432792860714    6.20427051581414
H         2.64151859706877   13.67203072559106    7.11293126203775
C         4.64603976967369   12.01142799060384    7.07078876206005
C         4.79666927220458   12.78844447648247    8.22088366536973
H         4.13221176112947   13.61458108305816    8.41843057474486
C         5.80831001720808   12.52426084521116    9.12252083836524
H         5.91013864452883   13.13648740169305   10.00537549107058
C         6.69351964444199   11.48237224292613    8.89288532716652
H         7.48568348814905   11.27978225790385    9.59721199098140
C         6.57252475847720   10.70397961065393    7.75900253435740
H         7.28406317714544    9.90908991934584    7.60143009303988
C         5.55784268229533   10.94798279445985    6.83154998381428
C         6.08108290389187    9.20315604790357    5.29904446015660
H         6.87273872606055    8.87207960782566    5.96984477826078
C         5.96219486227677    8.43861542678281    4.12106477356711
C         6.87438152724589    7.36124920522274    3.95044356566291
H         7.60383061676238    7.18238056473892    4.72715021416357
C         6.84488289679135    6.57096226849525    2.84589459086507
H         7.54549572779540    5.75857967378049    2.72990941324483
C         5.89644562805711    6.80207542455962    1.83194686708510
H         5.89740810765884    6.15601814140217    0.96808694242030
C         4.99435183982072    7.82358583884770    1.94484123965105
C         4.98285144329565    8.69506662523914    3.10281385235708
C        -0.47028456901832   12.78390347529119    0.97866150818363
H        -0.29454399018046   12.12777818480954    0.12774087523831
H        -0.37829516220070   13.82718494859724    0.65615463954565
H        -1.48162082562835   12.61347938085447    1.36438196854435
C         3.93187948234394    7.35291995651450   -0.12458453974131
H         3.10733643950193    7.77782976996975   -0.69470249036866
H         3.70642657581845    6.30744995717844    0.11444482759992
H         4.84743829612310    7.39623825190830   -0.72519143479477

