47
CSD_code = TOMZON | q = 1 | S = 0 | Stoichiometry = C18H24AuN4(1+) | MND = 2
Au        1.82974126173996    6.94361324883988    5.75696569066341
N        -0.75220389400816    7.79177264187478    4.40265277829845
C         0.24920527073613    8.11315183271264    5.24271150532594
C        -0.29957286173416    5.30810407080115    1.55972474734893
H        -1.34869154018721    5.26515397611980    1.25398531544963
H         0.31379353987375    5.34401671986053    0.65609397882379
N        -0.00205209900753    9.37163369754225    5.64071792515690
C         0.01619090230589    4.09685970962061    2.28940124331863
C        -0.88025606356653    6.55175662441196    3.68084982677885
H        -1.93581641265426    6.40213414564878    3.44153039834910
H        -0.54936051557381    5.72938877510077    4.32048321475913
C        -1.14579457992634    9.83804996725512    5.05583280251613
H        -1.52788671032984   10.81993575851475    5.24186359371774
C         0.79207179750525   10.15250204699919    6.54652099859366
H         0.18882206027775   10.47390043737709    7.39657204092294
H         1.17744428543525   11.03672989455303    6.03654902346222
H         1.62734074646175    9.55713661622736    6.91102222211738
C        -0.05200559306399    6.56911988340572    2.39266051982412
H         1.00736939364791    6.64539474964952    2.64967518349915
H        -0.32156598407113    7.44544349664842    1.79948336910350
C         0.27154897182137    3.10061077021358    2.90102827440880
H         0.47853806982608    2.20537609983922    3.40653367373568
C        -1.61732240208745    8.84043056982604    4.27083551346874
H        -2.48660910239874    8.79692279838243    3.64841433264859
N         4.41170256518221    6.09523413706085    7.11125055735797
C         3.41029167140590    5.77404329658005    6.27111999932816
C         3.95932590058679    8.58026373438164    9.95310315581040
H         5.00849093407498    8.62323701420920   10.25867770839521
H         3.34605565917956    8.54490065180411   10.85680985431478
N         3.66130609936836    4.51548952399898    5.87318753731291
C         3.64357888251464    9.79110818475985    9.22276543694610
C         4.54010239746321    7.33535458302599    7.83280978045912
H         5.59565954079875    7.48449777420366    8.07242681263939
H         4.20983986718913    8.15773113281574    7.19286047780214
C         4.80491437328936    4.04885381502709    6.45816114920670
H         5.18681210873376    3.06687791002578    6.27219417984530
C         2.86724316187363    3.73486144857612    4.96712294622647
H         3.47022251400113    3.41483272437286    4.11634319409540
H         2.48294455764147    2.84979601899173    5.47646490686641
H         2.03126851340888    4.32994047695009    4.60373725004331
C         3.71150074102602    7.31889635711563    9.12077099986373
H         2.65216790268747    7.24287510144530    8.86349633812608
H         3.98058844037587    6.44276495877317    9.71444543720849
C         3.38878476240844   10.78736260698323    8.61100344132940
H         3.18180691686775   11.68207516730091    8.10457043973784
C         5.27660784726751    5.04641126493622    7.24314078619029
H         6.14585610162964    5.08975358523888    7.86562943860608

