44
CSD_code = TONBON | q = 0 | S = 0 | Stoichiometry = C16H19MoN3O4S | MND = 6
Mo       10.04874243565243    0.33196344492703    9.73895536649819
S         7.85663117068688    3.99018377898228    8.09285056975408
O         9.71683635214628   -0.85558443170285   11.08819329374062
O        11.60124926752644    0.75165312420608   10.11864062129204
O         9.81896277343437   -0.51077153115723    8.34230966247025
O        10.09197844753948    1.86241658467945   12.07031460654862
H        10.98977868342350    1.53676156057704   11.89539335832736
H        10.12134995714849    2.81686567479253   11.94798846935078
N         8.00180661959661    0.77954093759080   10.15967279696257
N         7.49398520578654    1.87914964700670    9.54646292766616
N         9.69769661817429    2.18387002893789    9.00722658347060
H        10.37122707975441    2.80506346742001    8.56591792494027
C         8.74728913014059   -1.58070588410596   11.58690733644223
C         9.07050869447557   -2.77095879804866   12.28225335985502
H        10.11589079675875   -3.03725834776923   12.35222759474397
C         8.08944942730265   -3.53793284685195   12.83040273127964
H         8.33829840087623   -4.44658742966250   13.35933868004130
C         6.72655879294945   -3.17056307967198   12.72491521185710
C         6.36683326072537   -1.98356194201816   12.03267963943308
C         7.40428173848571   -1.17460221573282   11.45161770262937
C         7.11744697977780    0.03147540918223   10.75538751835714
H         6.09086150574244    0.38218709584070   10.68367890349898
C         8.42076928697168    2.56260335069683    8.93783912483294
C         9.31155266282940    4.40900153868004    7.04592008660508
H        10.10150550572935    4.80178821679695    7.68913565851999
H         9.64054032923901    3.49073193392494    6.55615497056630
C         8.90763036524149    5.45317391021986    6.01570568939613
H         8.09973771081576    5.05631153486160    5.39914744216695
H         8.52898020042820    6.33784810234978    6.53096277306197
C        10.09043058824922    5.84087455795467    5.12872789437499
H        10.90339437809049    6.21892240499833    5.75308600524418
H        10.45695753423160    4.95430323558678    4.60674743478791
C         9.69833432574413    6.90416753982356    4.11055205910898
H         9.35331920301685    7.80466879786778    4.61378225646103
H         8.89760869151864    6.54175255656198    3.47005628426900
H        10.54885527578844    7.16388750731745    3.48492239736538
C         5.72581920440595   -3.97602048309914   13.30153189286617
H         6.02504869349876   -4.87335250119249   13.82356875334214
C         4.40452020339662   -3.63507170596918   13.20469146229830
H         3.64166589054510   -4.25676550097303   13.64834592537818
C         4.04349799834116   -2.47028464602698   12.52045129861368
H         3.00032544112440   -2.20267860922178   12.44021049445355
C         4.99759963497200   -1.66734717751895   11.94977424990119
H         4.67704353771381   -0.78031881105948   11.42825098723204

