50
CSD_code = TONBED | q = 0 | S = 0 | Stoichiometry = C18H23MoN3O4S | MND = 6
Mo       -1.14870963404392    2.07359574087356    5.01369589797283
S         0.25945262164669    0.69292497811047    9.08041389327840
O        -1.78963230336240    1.23067580340618    3.48410502482314
O        -2.17922494337837    3.34792450257776    5.13354947711148
O         0.39936854016813    2.50551779965214    4.64484879087449
O        -3.36994023655559    0.62246869057677    5.75090873992637
H        -3.52436016205412   -0.05514564752452    5.07763722940834
N        -0.57421122576375    0.04331994874213    5.40273835891150
N        -0.11820091440496   -0.18635095910763    6.65946027588516
N        -1.01813019136385    1.89343932296296    6.99840088304272
H        -1.27564261006534    2.57732866007619    7.70542679622794
C        -1.35535703529066    0.29603684666287    2.67137695386332
C        -1.67838129172911    0.39843255492631    1.29537021078657
H        -2.24171978844526    1.26667204973316    0.98237999723816
C        -1.27631634638738   -0.55725699492566    0.41497068151722
H        -1.51978460600795   -0.47063860494334   -0.63409669109866
C        -0.53360174877972   -1.68239659634794    0.84525288689984
C        -0.19305021366231   -1.81905919864751    2.21733838420717
C        -0.61147330217805   -0.80400362746423    3.14627671657267
C        -0.27853918591712   -0.87372843915413    4.52980590894570
H         0.28956053063138   -1.71991708273260    4.90876238678462
C        -0.35908953892212    0.82536581095822    7.44274183373470
C         0.54025964281283    2.45897163325093    9.49037475588077
H         0.94733646136375    2.41810380502666   10.49971671991140
H        -0.42051084978675    2.97607983613146    9.52648267923801
C         1.51386481574009    3.13066770317512    8.53109069386696
H         1.17069963475974    3.01129094425663    7.49568712123652
H         2.48730787058852    2.64362783661830    8.61805824333389
C         1.65865108772998    4.62745588958733    8.81503100198779
H         0.67709164763514    5.10296701389094    8.75385004693372
H         2.27929791071515    5.05865919187010    8.02813603736804
C         2.29134287073093    4.92702308261919   10.16942825828683
H         2.46468401204151    5.99539596482492   10.27286510622280
H         1.64702505910678    4.61014606257255   10.98567878764658
H         3.24648539674875    4.41556064424883   10.26454756998774
C        -0.12725861922067   -2.66338247917192   -0.07950715800924
H        -0.39788722408604   -2.53480929314221   -1.11755457637405
C         0.59537328969604   -3.75329412071829    0.32146794725797
H         0.90610415368530   -4.50114539591364   -0.39228253302333
C         0.93370401428532   -3.89455836412773    1.67086593384114
H         1.50488155493964   -4.75421098499458    1.98872117557236
C         0.54986806448608   -2.95487539000950    2.59259818658027
H         0.83264313246262   -3.10187112077017    3.62210904891385
C        -4.54367683619647    1.42729857579115    5.80603607067741
H        -4.29950928923007    2.25360895839852    6.47629295875238
H        -5.35907160047020    0.83036758505642    6.24077536579316
C        -4.93344653091889    1.96406021837751    4.43868007518475
H        -5.81390409222596    2.59453733848934    4.52379788992958
H        -5.15231547349908    1.14767554791550    3.74971726305540
H        -4.10745651800889    2.56004375832858    4.04717069300524

