51
CSD_code = TONCAA | q = 0 | S = 0 | Stoichiometry = C24H18MoN4O3S | MND = 6
Mo        1.43110271656316    0.95595754934778    3.35762698339010
S        -0.35041461274007   -2.19124942045792    0.63293938073754
O         0.86896312710144    1.84531840987414    4.89385131681326
O         2.95951737362152    0.51440383714501    3.78546369149467
O         1.40675568878947    2.15850455602712    2.23051539721048
N        -0.69610496399542    0.68262861595478    3.19277119359681
N        -1.13071926331473   -0.30702658251833    2.36405554174887
N         1.15692869719586   -0.57327129818717    2.01925859858062
N         0.90142458217846   -0.94806468225642    4.80211148933722
C        -0.09497596258452    2.70255853832927    5.12638012698799
C         0.15267451954845    3.75595713418507    6.04154968558910
H         1.14595962314309    3.81635728297435    6.46446044835430
C        -0.82165861981731    4.65244930661069    6.35374368741329
H        -0.62254204219428    5.45687476597708    7.04713471952522
C        -2.11114665508437    4.55932405508535    5.77937904314395
C        -2.39686093132036    3.51534726809441    4.85945455972275
C        -1.36822397506707    2.56563436195634    4.53565451552210
C        -1.61543285004586    1.47927738652800    3.64429266678472
H        -2.62864142893454    1.28050410042884    3.30250233192024
C        -0.12706727302054   -0.90194435146715    1.78974679078078
C         2.01921167065737   -1.31267490723864    1.24542295881072
C         3.40432002998968   -1.18007997325624    1.22249968023758
H         3.86224706468967   -0.43229399784074    1.85818637657328
C         4.13342195079877   -2.00429439206094    0.38624105274937
H         5.20818839068991   -1.91157482996615    0.35550796514212
C         3.50549301231924   -2.94668079655596   -0.42224303876223
H         4.09632231346117   -3.57535080949172   -1.07035771667483
C         2.12777316748446   -3.08428072507497   -0.41434066548261
H         1.63121049651831   -3.80489836715869   -1.04383137871665
C         1.39406411337596   -2.26305464298981    0.42117487926719
C        -3.10749295754793    5.49917628946116    6.10581400287561
H        -2.86422193470279    6.28266569813608    6.80904356305183
C        -4.35271568102381    5.43029696108836    5.54428382785369
H        -5.11200756887862    6.15500480721293    5.79671707365250
C        -4.63739933883966    4.41284290542611    4.62803031937717
H        -5.61719568095334    4.36301266821779    4.17626384979423
C        -3.68676775118673    3.48327797540842    4.29428181559911
H        -3.94384022433700    2.72379892886649    3.57392014307321
C         1.74975604083753   -1.97229435001191    4.75042589460351
H         2.44564457268404   -1.97091252667010    3.92157553241275
C         1.77589902388900   -2.97984558305017    5.69680691131279
H         2.48617028686445   -3.78649806721903    5.60116235229725
C         0.88962104707368   -2.94290064669345    6.76936339442597
C         0.00621600270521   -1.86868851561573    6.81538087726095
H        -0.70870258536969   -1.78025590641991    7.61914426123093
C         0.04713330062370   -0.90807613860915    5.82137087730517
H        -0.64271779269753   -0.07182463174769    5.84541219732217
C         0.90306197277416   -3.99039910419870    7.83131442428679
H         1.23432356864492   -4.94524049777531    7.43113668699118
H        -0.08171225471937   -4.10694552190110    8.27670534426312
H         1.59695799415312   -3.69755213590275    8.61969436921379

