77
CSD_code = TONGOU | q = 0 | S = 0 | Stoichiometry = C22H44N4O2P2S2Zn | MND = 4
Zn        9.08336835004625    2.60218569828186    3.65709937584116
P         6.40399098676408    1.91988477974184    2.18203002766466
P        11.78867825138614    3.42647851479373    5.00684050253676
S         7.17823936695228    3.67963940819956    2.82303298106841
S        11.28216974447506    3.14943242711969    3.06421253469771
N         7.39535615916083    0.85028184273168    1.49366409099270
N         9.29315669767539   -0.36005275341883    1.28600563071720
N        10.74059104884730    4.18050702575312    5.97295983122499
N         8.70536749574769    4.63647364980347    6.84439409761556
O         8.90542114599292    2.83297586347439    5.53236866327237
O         8.96990124049828    0.76600283199359    3.19414051757686
C         8.54340492417393    0.45926372513284    2.03615613464170
C         8.95290050723608   -0.74599543712132   -0.06649248163468
H         8.95860061063653    0.13453568251068   -0.72026482935078
H         7.95208642285905   -1.18182474130658   -0.09329447744770
C        10.05756442110683   -1.72937978106011   -0.44370637078903
H         9.80151238319847   -2.73072634148667   -0.09553421386357
H        10.22960292155933   -1.76506232381362   -1.51725789611305
C        11.26138747454339   -1.19697514576598    0.33333379414904
H        11.69247087838860   -0.34180733343007   -0.18756360383559
H        12.03609729626173   -1.94708513769694    0.47730765473376
C        10.64273845967399   -0.74335615824082    1.65318994086459
H        10.61021898200951   -1.55863426821315    2.38576450986060
H        11.16434871809887    0.10514112083307    2.10257999689664
C         5.27906519629473    2.34069694791266    0.77957953424680
H         4.88442154894128    1.38599087235459    0.41642395980551
C         6.12564645093401    2.97620699212021   -0.31581755323497
H         5.52696418429587    3.15412470258104   -1.20746363794173
H         6.95318352532075    2.31708378453656   -0.57052098553064
H         6.53012669313234    3.92571531684426    0.03053309669140
C         4.15442922298029    3.26403632528800    1.22320691757554
H         4.57339493051609    4.13771091694575    1.72007518459007
H         3.47212809640715    2.76569660460288    1.90898121470467
H         3.58356359227212    3.59960110006527    0.35878813231942
C         5.33705738578968    1.19159126627348    3.53472715687972
H         4.64052459106073    1.98255414593123    3.83525783576652
C         4.58253432607061   -0.00797802867330    2.97546587433956
H         5.28481151936943   -0.70156046374976    2.51485697104820
H         3.85166698598792    0.29159646511628    2.22739514118554
H         4.05888675887143   -0.52649699799417    3.77748141167030
C         6.19100253157344    0.79279896065577    4.73099006435806
H         5.55663988368881    0.44111350267246    5.54408311260088
H         6.78289963027353    1.63192661546782    5.09530395565783
H         6.87875437962955   -0.00552615110762    4.45690866927437
C         9.45962089107910    3.84195582268686    6.07230290301663
C         7.26271715273191    4.51186711968982    6.92398601776963
H         6.99787873654379    3.70822308522757    7.62143045378681
H         6.85284753986874    4.26647688691259    5.94126739038903
C         6.81000108754069    5.87581491743927    7.43896241070241
H         6.66237891225591    6.55809828908875    6.60159626795460
H         5.88559785974314    5.81522947109171    8.00938965985757
C         7.99883837585649    6.33440821084538    8.28320650690734
H         7.97883987228802    5.84086507290802    9.25556279573786
H         8.01752941716559    7.41112368626802    8.43718154031806
C         9.19558206628327    5.84456527046478    7.47233527125005
H         9.48719464619800    6.57326931471261    6.70637574970826
H        10.07438233303303    5.62260682394704    8.08123577619294
C        13.20527751590396    4.61079990595290    4.99889924990718
H        13.45700726975529    4.78194596571753    6.05077915344810
C        12.71170387661565    5.91622977790009    4.38841590528249
H        13.48175047583298    6.68318780532823    4.45101911879974
H        11.82609969779951    6.25933392223142    4.91956832308652
H        12.45314564379720    5.76306925582594    3.34208395876095
C        14.39651598196160    4.05217715594757    4.23532743408722
H        14.08118866945701    3.74648380640405    3.23891826756578
H        14.83251653131487    3.19382047846707    4.74255522491815
H        15.16667247819135    4.81531598626913    4.13431247865951
C        12.43140956355539    1.81552153936285    5.70703274630895
H        13.20579283500910    1.46740254421345    5.01402468850181
C        11.31592527556053    0.78094213228744    5.77508363079721
H        11.71278149390000   -0.17708401242888    6.10961854785840
H        10.84587756726481    0.63736782075995    4.80263775276130
H        10.54442566183682    1.10036529901305    6.47381089058936
C        13.02071004109966    2.07773014045152    7.08726396278539
H        12.28904840926444    2.59441421214664    7.70704338725152
H        13.91866260953072    2.68921208338417    7.03005124856256
H        13.27840359111036    1.13507418278725    7.56819881926752

