84
CSD_code = TONHOW | q = 0 | S = 0 | Stoichiometry = C35H41N3NiO4 | MND = 4
Ni        2.67732183654414    3.49638906253496   12.94630466273064
O         1.19233854258563    3.27364088763856   14.05499326960484
O         1.59636216622017    3.26550280439189   11.43650997489708
O         0.52459756636500    3.34967453816769   19.49977123506570
O         2.59891045437982    3.46626345725727    6.04295992313145
N         3.79523828274781    3.64353171601461   14.40344640585140
N         4.14681997944265    3.90396487303200   11.89248364884617
N         2.47739142856381    0.19351778432472   12.59488084044643
H         1.82030776737519   -0.03146558752310   11.86663773787836
C         1.06994870717486    3.34700288603913   15.33102316863933
C        -0.22719877990614    3.23413172124652   15.94715665797483
C        -0.31175301755254    3.24122127327413   17.31228179347690
H        -1.25956801297075    3.14180359353177   17.81386888753636
C         0.80702520583439    3.38220075199445   18.15756883699155
C         2.04322773327295    3.54675873738136   17.60263344796316
H         2.92983379780347    3.67939904869430   18.20362258948012
C         2.18951347672895    3.53156711676180   16.19764857994011
C         3.49151612211869    3.62966928726822   15.66066060068133
H         4.31086533843937    3.67658938058626   16.38262586038399
C         5.18173808305615    3.46397631332705   14.01398647684549
H         5.86182881112735    3.90401542170145   14.75858314206342
C         5.47705888310039    1.93342192732161   13.90268469757039
H         6.21918614141836    1.76772886680663   13.12007868188732
H         5.89666253935066    1.59107615175086   14.85010415533033
C         4.23196034264227    1.14682835142009   13.62371530651892
C         3.64127502826743    0.88978746987113   12.41048565742473
H         4.01313244539182    1.06998978906991   11.41706848780161
C         2.25823691772684    0.03530856498563   13.93109749001680
C         1.19610316074661   -0.55133255908825   14.60745777967945
H         0.36166041297357   -0.97375213209141   14.06789852596110
C         1.24325948179678   -0.56256676149779   15.98388724219533
H         0.42923017876121   -0.99874734670475   16.54363464925946
C         2.33011842577944   -0.02359681491783   16.67744516672407
H         2.33050179089404   -0.05961926822369   17.75697934737439
C         3.38827205715733    0.55195332627264   16.01350178294409
H         4.22493759731757    0.95890775902400   16.56290045659523
C         3.35654652280007    0.60329436387970   14.61948632272938
C         5.33713436714527    4.18466891275045   12.67235154662737
H         5.40055838909440    5.26707944223497   12.85256530225563
H         6.24678622216702    3.87061298747688   12.14507141416542
C         4.22322695127446    3.94064583708239   10.60269935729876
H         5.18817327545665    4.19044670393974   10.15291528041820
C         3.17020408878506    3.66474682499114    9.69797359347597
C         3.44878795439078    3.72894843037827    8.31408390430562
H         4.44697229345012    4.00491672579941    8.00958851035554
C         2.46687393569474    3.44399473521726    7.40824852551228
C         1.18782004563701    3.07961843700067    7.87412501770700
H         0.46344213320421    2.85783950911883    7.10881183134500
C         0.86491019404246    3.00430638881925    9.20173821418451
C         1.87279214290119    3.31620181901809   10.18302288006536
C        -1.46709430758041    3.14264326822167   15.07021760901123
C        -2.76312794426453    3.04239015537539   15.88088795521419
H        -2.77332016427329    2.14675852444915   16.49772459244468
H        -2.90233272151886    3.91500125160134   16.51479096001750
H        -3.60705789167856    2.98801947801808   15.19578758386560
C        -1.54008172824651    4.41061000485000   14.20880010184620
H        -0.64761380456709    4.50337957486010   13.59838131420245
H        -2.40737020338946    4.37136324311030   13.55372983126751
H        -1.62315548169885    5.29119561887233   14.84324043412743
C        -1.36861619466917    1.90318497484804   14.17448871258177
H        -1.32354841449183    1.00436889200533   14.78573410128958
H        -2.23816028037072    1.84332248598790   13.52352877846653
H        -0.47439100869495    1.95699140803799   13.56399436052124
C         1.59786510000225    3.47173796441640   20.39550410779304
H         1.16483183244517    3.40270638631090   21.39246493079337
H         2.32753142986407    2.66522403141818   20.26154816216828
H         2.10479368189471    4.43738402279817   20.28864792750963
C        -0.52471273781043    2.59003956413345    9.66461548851817
C        -0.39999474317174    1.32680008071855   10.52787830477024
H        -1.38476073893907    0.98913521137447   10.84296937999621
H         0.07465664863253    0.52885787158374    9.95724895250314
H         0.19027419362006    1.54626464252378   11.41184478838583
C        -1.13545342357234    3.72591980517722   10.49360149696779
H        -2.13026369319841    3.44744423172996   10.83378274997513
H        -0.51599827356499    3.93025884155505   11.35981437058941
H        -1.21282296301670    4.63033807528844    9.89346406852110
C        -1.47108911484060    2.28322307190779    8.50003166942404
H        -2.44216669018792    1.99508344166630    8.89820536919229
H        -1.61448493383359    3.15671350593709    7.86842221049799
H        -1.09964882845996    1.46018604639492    7.89345830144137
C         3.85020708453557    3.81456500831022    5.51152750692934
H         3.73735115135099    3.77092528389964    4.42922669189449
H         4.14422532052334    4.82895786748635    5.80326922337623
H         4.63004043464400    3.10974265586349    5.82159909557131

