49
CSD_code = TONKUC | q = 0 | S = 0 | Stoichiometry = C24H20N4Ni | MND = 4
Ni       -2.79517652871073    7.20723426262689   11.01695853966022
N        -3.30757731713768    8.91405965621838   11.35927268345482
N        -2.76351137563197    7.74660358498841    9.22180103657211
C        -3.46046433959115    9.69100363220666   10.28279798415865
C        -3.86565287265935   11.03805154262789   10.27259003241375
C        -3.95046532719728   11.70461992991765    9.07739045240048
C        -3.62445730811843   11.06356467716322    7.87187999088096
C        -3.22844159511309    9.74968351094034    7.84513630333734
C        -3.15607556564873    9.02618948314812    9.04953725222839
C        -2.50212793846788    6.96565649402691    8.08736331192954
C        -3.49469019381753    6.73333687649532    7.13230309296451
C        -3.22871057125676    5.94554056222111    6.02959138497925
C        -1.97509569308402    5.37976604325809    5.85681727401121
C        -0.98478823578369    5.60512577768648    6.79878770925192
C        -1.24206328606630    6.39073819981795    7.90651917488129
H        -3.51489499095188    9.38650050054259   12.24053323480140
H        -4.09950828833431   11.52924950885252   11.20687007545700
H        -4.26083794721299   12.73872975719916    9.05690865662109
H        -3.68238961074418   11.62152325963271    6.94910363450989
H        -2.96257028300211    9.27554717655931    6.91229029425751
H        -4.47563409057848    7.16205861465126    7.27887334669673
H        -4.00549245709506    5.76917619720954    5.29990181406596
H        -1.77224055513935    4.76542480539684    4.99248883977438
H        -0.00475869274561    5.16961027128218    6.66774203138480
H        -0.47258958552554    6.58184062807440    8.64256459109255
N        -2.28275867137266    5.50041221434552   10.67464967446766
C        -2.12985380848923    4.72347648197292   11.75112780794363
C        -1.72463448626269    3.37643760315302   11.76134191493015
C        -1.63980727074612    2.70987661809890   12.95654448852448
C        -1.96583219647664    3.35092931276673   14.16205191387891
C        -2.36187917722276    4.66480116089455   14.18878945973061
C        -2.43425878721221    5.38828896436569   12.98438550760845
N        -2.82685065088494    6.66786568056071   12.81211533392177
C        -3.08827695482633    7.44880546090926   13.94654819469137
C        -2.09574232114596    7.68115132409088   14.90162958107733
C        -2.36176773611382    8.46893613973089   16.00433867292769
C        -3.61540206697883    9.03467508805621   16.17708769841099
C        -4.60568194178119    8.80929112820833   15.23509386296616
C        -4.34836019659858    8.02368908559118   14.12736553074527
H        -5.11781114717237    7.83256885016189   13.39130116824025
H        -5.58572586235691    9.24478034757428   15.36611989375826
H        -3.81829164201208    9.64900744983219   17.04141471780395
H        -1.58500545424028    8.64531875005795   16.73404429905507
H        -1.11478461797744    7.25245689362997   14.75507639838518
H        -2.62776200287743    5.13893523604457   15.12163330535578
H        -1.90788728551647    2.79297678090126   15.08483104622836
H        -1.32941102887771    1.67577393559035   12.97703099126039
H        -1.49076673906885    2.88524022011656   10.82706437913142
H        -2.07543330417440    5.02797032060205    9.79339141717093

