35
CSD_code = TONMUE | q = 1 | S = 0 | Stoichiometry = C15H17MoO2(1+) | MND = 12
Mo        1.87995170267699    0.79324677288656    3.04229899141632
O         1.40446766230830   -1.80913380165343    4.60624113579508
O        -1.30910847186822   -0.14168092580252    2.01616285471658
C         1.60159332416945   -0.82762494178861    4.06058946582457
C         4.13182863443646    1.36353994289555    2.82735991346345
C         3.47166687907208    1.74395920841973    1.64658672124515
C         2.96285085100672    0.57030433782001    1.02560761739724
C         3.29907438149824   -0.53984382802715    1.82383959546613
C         4.00904269617990   -0.04174775553742    2.97266669360301
C        -0.51900366930125    0.77509262752485    2.58315917522834
C        -0.20342342066094    0.93756424934532    3.97118936306943
C         0.56777213935536    2.17484317478693    4.09099484833185
C         0.71100639435011    2.72276489850575    2.76271589458447
C         0.06410375435825    1.84234376632533    1.84782964021697
C        -0.92389456977778    0.25982135351880    5.09934475235537
C         1.70702454706576    2.13541132066020    4.92580825394109
C         1.19042315560890    4.10241215979119    2.45416613483875
C        -0.18370898222959    2.06455157743652    0.39580825966998
H         4.71994999841784    2.00771193996267    3.46526970032737
H         3.51070534037712    2.72536578086988    1.19621437418043
H         2.52280931866761    0.52041618476918    0.03891276499417
H         3.23527378150398   -1.58044160598435    1.52954318540257
H         4.58428996771701   -0.65180548747427    3.66120822551868
H        -1.06596070230659   -0.80674473722855    4.91936009194852
H        -0.37858120342966    0.37716713242638    6.03506732782822
H        -1.90688413191476    0.72100784580031    5.22599304569626
H         1.63075945283937    1.65587193419380    5.89350538707161
H         2.36207236900768    2.99692365748142    4.93192474212759
H         0.37713325311392    4.80782817418578    2.63759856193544
H         2.02361987427351    4.39299752735630    3.09188531057020
H         1.48411720432722    4.20457511455022    1.41164409668163
H        -0.38675646477825    1.11773545789608   -0.09991982417692
H         0.65049943212813    2.56442340279085   -0.09221773157767
H        -1.06654294256692    2.69587016547994    0.27891586467591
H        -1.67157155562592   -0.76192662418326    2.66372556563221

