41
CSD_code = TONTIZ | q = 0 | S = 0 | Stoichiometry = C16H19ClN2PdS2 | MND = 4
Pd       -3.14515146883587    7.15397365291916   12.25454041015558
Cl       -4.08244725268243    6.55760974892115   14.22228512000663
S        -2.65750668362133    4.99898862028582   11.59124912989779
S        -3.46509087728146    9.41150146322884   12.53885704541681
N        -2.49602033601187    4.31337678967239    9.08738935753963
N        -2.02372524556113   11.24060199566649   11.39089596797845
C        -2.33577832819339    7.67422407777503   10.54469601141528
C        -2.02505675347770    6.69117905995822    9.57461443206184
C        -1.37940863945337    7.06018753323826    8.39238740076336
C        -1.14766672267263    8.39651507298370    8.11998180489633
C        -1.50413406714668    9.38105298022748    9.02406042838338
C        -2.04905464144588    9.03278328648106   10.26299224897354
C        -2.37686528862694    5.32773522652670    9.94519795880732
C        -2.85239975249490    2.98942809367095    9.57066844558804
C        -3.09609679296432    2.16437349810713    8.31203585540461
C        -3.56710232473270    3.21842222692479    7.31494976376541
C        -2.65930840282161    4.40008978157245    7.64792851461216
C        -2.42157054059566    9.96908381960746   11.31320913275575
C        -2.50470285847429   12.08657790680226   12.47082516805256
C        -1.74589779837155   13.39789758585885   12.30687270507980
C        -0.43265611146086   12.93779936002235   11.68230449361455
C        -0.90293713385238   11.85949288138900   10.70824786767380
H        -1.03512669034449    6.31963660471438    7.68908561698976
H        -0.68357383608594    8.67619133168526    7.18571778449060
H        -1.36642566856736   10.41141622405739    8.74184261031832
H        -3.75430458045270    3.06490966650982   10.18972354475701
H        -2.05336743097061    2.59489269076825   10.20193806045272
H        -3.82893549308535    1.37852953118085    8.47527505331482
H        -2.16713548518450    1.70955761980854    7.96701665186515
H        -3.46940122320093    2.90296507452005    6.27892063062625
H        -4.60755726738264    3.48038616135185    7.50772256074747
H        -1.69065386694057    4.27420419413693    7.14963554184236
H        -3.08969733985466    5.36102501847398    7.36333774257702
H        -2.28364184658170   11.60593727813490   13.43111050147022
H        -3.58888509540806   12.19844161171610   12.40191732766336
H        -1.60791161028034   13.91104908740275   13.25485543839548
H        -2.27538240145387   14.06221876499963   11.62347636317110
H         0.21291926912471   12.49954599805709   12.44380880547538
H         0.10723181296652   13.73769698418736   11.18071652265711
H        -0.12934857922760   11.12330420614306   10.48593400726313
H        -1.23992464627330   12.32679729032386    9.77527597308155

