77
CSD_code = TONWOI | q = 0 | S = 0 | Stoichiometry = C30H39Cl2N2P3W | MND = 6
W         3.43886908208137    4.09984865133504    2.68858895843530
P         4.90853254724767    2.55824592351661    3.84565768425048
P         4.89970123699307    4.53658183495155    0.80588052123296
P         1.53407625918807    3.88930695734482    4.16964179072965
Cl        1.77003184835090    5.18722865302115    1.23647851052945
Cl        2.73831344514019    2.11719265919374    1.63173686257258
N         4.03500088308053    5.51377120458692    3.60251450131550
N         4.43518802222638    6.55091067400097    4.29565963779925
C         6.32281173328080    1.82790418936801    2.93767185597653
C         7.65590844283090    1.98605732963141    3.29783539320903
C         8.65802109546232    1.42308050608722    2.52702970409557
C         8.34564311235419    0.70276822346335    1.38812415511710
C         7.02014544316577    0.55198238413478    1.01379324033871
C         6.01799978070596    1.11405519227944    1.77999041547576
C         4.15935222371930    1.00856342581813    4.49007428949686
C         5.68668046514913    3.19484382942753    5.37653159919573
C         6.71188785148025    4.44180000295304    0.99028769695069
C         7.58330282981506    3.85825277817118    0.08294759364188
C         8.94765999958804    3.88431286104230    0.31893565247838
C         9.45070122326318    4.49562925006956    1.45327526351923
C         8.58397731592545    5.06929449638588    2.37082594128888
C         7.22339040109899    5.03205641859890    2.14195840511582
C         4.53083996142499    3.65357339638835   -0.74624643901840
C         4.77789287088072    6.27961019243100    0.24292173266553
C         1.78190478365856    3.47799502368699    5.92951410841617
C         1.35400842317791    2.29564639107260    6.52174091289886
C         1.65034194423620    2.03143789961053    7.84857544168243
C         2.37824041845942    2.94047919373716    8.59671680417587
C         2.81817359870465    4.11831634249726    8.01150069238365
C         2.52854536381983    4.37892689038152    6.68618483112603
C         0.57469074984349    5.44367699298767    4.34808583875900
C         0.21120248642336    2.75757311296288    3.62632162508374
C         3.92903889485228    7.83047432755368    4.14026935163260
C         4.38615784200775    8.86539047561244    4.95622289009601
C         3.87441382988252   10.13801374037160    4.79742277194997
C         2.91080860136341   10.39250923319448    3.83412373015577
C         2.45898241852698    9.36152649553911    3.02341156393177
C         2.95930724928668    8.08427497774546    3.16746199395983
H         5.12960755169135    6.41289196882620    5.03155991275076
H         7.92391769447190    2.54627921283011    4.18038845136295
H         9.69061148871267    1.54959233386903    2.81926119093671
H         9.13205492065913    0.26383698858842    0.79187992469992
H         6.76992663920435   -0.00689959587069    0.12329053596267
H         4.98176547881202    1.00378899783113    1.48915116218417
H         4.92940835039878    0.35618784365044    4.90322842049802
H         3.43402768963578    1.26876349736934    5.26208273293368
H         3.64670213171225    0.50078470684384    3.67447326502085
H         6.26570596044425    2.41501450723584    5.87042583263866
H         6.32890860599630    4.04012467107228    5.13695827202839
H         4.88585723541109    3.52739463682022    6.03731106573129
H         7.20548601580833    3.37874421518300   -0.80726573728634
H         9.62189307566882    3.42668100907648   -0.39051422571864
H        10.51647572672477    4.52015313535079    1.62703621945702
H         8.97578451629343    5.54112196822247    3.26101755699977
H         6.52280518833428    5.45697635816411    2.85199465378388
H         5.08198051604554    4.08062020764873   -1.58453167303944
H         4.76112517831398    2.59436923514848   -0.63410278735557
H         3.45791385854678    3.76033599327235   -0.92179502259573
H         5.44564245268790    6.45720410469083   -0.60115344420653
H         3.74434489418561    6.47243747511987   -0.04450449335873
H         5.04236924464386    6.94098466105882    1.06795213274418
H         0.78435008818814    1.57786543050606    5.95000348073803
H         1.30926019775960    1.11120453745346    8.30075366431370
H         2.60421662033170    2.73270865619167    9.63203479748241
H         3.38794875691982    4.82947346579851    8.59282655517003
H         2.87596700595741    5.29029387799526    6.21669105064129
H        -0.26121634099794    5.29871226684053    5.03363569328078
H         1.22034846026366    6.24068409801977    4.71406847055642
H         0.20921821409606    5.72350358242983    3.36019783006095
H        -0.64275068836835    2.79599887019501    4.30348683984635
H        -0.09017992487403    3.08819013493462    2.62995078216338
H         0.59485634887498    1.74070655118047    3.54490431972364
H         5.13765859058687    8.66474072275933    5.70824067122474
H         4.22974175590828   10.93754494718292    5.43136422508226
H         2.51465251206187   11.38975304541674    3.71701588343187
H         1.70848397854690    9.55395006935926    2.27147845673438
H         2.61608526760067    7.26926948080484    2.54483583532351

