72
CSD_code = TONXOL | q = 0 | S = 0 | Stoichiometry = C23H42MoNO2P3 | MND = 6
N         4.46935280734674    2.77941082306649    3.77792139651134
C         0.16138030524287    4.42595151366315    3.04773345159624
H        -0.23510236890080    5.44827055488631    2.98656563641330
C        -0.46057649441119    3.59804983283948    1.93057830135806
H        -0.08822722288537    2.57640945462504    1.97568274912858
H        -0.22045103272243    4.01135132853448    0.95200994234309
H        -1.54485426167660    3.57877333811411    2.03597292221725
C        -0.16793778711046    3.81198563289459    4.40413828865855
H        -1.23306387718336    3.59593623288443    4.47424022789933
H         0.09739810891689    4.47728381412321    5.22312276891879
H         0.38060909854208    2.87700112411620    4.52513828686465
C         2.46540200979661    5.71058420478697    4.19692005397363
H         2.29915780526308    5.13981192111133    5.12188498143450
C         3.95202100503756    6.05280832325392    4.13323462189050
H         4.21361911481395    6.56361227550626    3.20666863099453
H         4.55836781470959    5.15670992684878    4.21718275964635
H         4.21656578444418    6.70884096397992    4.96166538732656
C         1.63149068595547    6.99056586309398    4.23714714011154
H         2.01402716268085    7.64315314640241    5.02124820256369
H         0.58681995021320    6.78963669713408    4.45843996267489
H         1.69231686396156    7.53118884784444    3.29488729650356
C         2.15817350438851    5.59872226234692    1.33551602235876
H         1.20149402983216    6.09314773444541    1.13390323778754
H         2.89860600728508    6.36957103458848    1.57802911842909
C         2.64867278663221    4.83664838205818    0.10842540122353
H         2.95842778905816    5.52901802244538   -0.68268413561884
H         1.86324720619228    4.17960667306526   -0.27875605067775
C         5.48724160730953    4.80142916364838    0.45851400756166
C         6.35716842994483    4.90275743253164    1.53700586846021
H         6.13512293304417    4.35438668685994    2.44265149549176
C         7.49050336616792    5.69179177876412    1.45269555864127
H         8.16131332500222    5.76460029004214    2.29603282325546
C         7.76045216293514    6.38632492521602    0.28566279213867
H         8.64311912333223    7.00492999304277    0.21512101050018
C         6.89845429342703    6.28797063473334   -0.79597808164882
H         7.11167620085499    6.82943505576757   -1.70673938529998
C         5.76677241392266    5.49867980900417   -0.71356726034204
H         5.10065162757307    5.42497493711860   -1.56355275150075
C         4.21128136991356    2.57500707128854   -0.77147326558872
H         3.20209819834176    2.24567146800127   -1.03933703741525
H         4.67321927765003    3.06214354471583   -1.63826942914735
C         5.05019973379037    1.39161312753613   -0.29807319284399
H         6.09116056245203    1.71601856903872   -0.19256869459408
H         5.02522200560620    0.57811551880693   -1.03029502929421
C         6.08763003105280    0.15287336176139    2.07588003229604
H         6.53712784789904   -0.52384461946809    1.33709724963509
C         7.06933119055342    1.28499661718748    2.36516199958084
H         6.73215608226491    1.87299110931733    3.21365856898713
H         7.20076255291886    1.95132844177928    1.51343539261997
H         8.04417659046789    0.86967017038856    2.61865323884850
C         5.77699763846365   -0.59293823780127    3.37104800850044
H         6.69922015626977   -0.90090488318241    3.86221231289855
H         5.16985708643797   -1.47887065436236    3.19717631937345
H         5.23124739999931    0.06517777895782    4.05017310749102
C         3.61591395651832   -0.81611140633180    0.94199690527940
H         3.20436742396527   -1.14952494025268    1.90583743190343
C         4.48863687198351   -1.92404025060121    0.35291083154112
H         3.85169140873490   -2.75230720053700    0.04416928102102
H         5.20488493882040   -2.30960146704188    1.07327203830437
H         5.03186673187448   -1.57881458951462   -0.52533570311907
C         2.44108439554339   -0.53037715424368    0.00952276207012
H         2.78892712804281   -0.28940560591681   -0.99414927361307
H         1.85289034463935    0.30229107817748    0.39056506481355
H         1.79449229607328   -1.40400621611629   -0.05896609165461
C         2.38245441661765    1.31752057915828    3.74800822830685
O         1.89029345393963    0.58271314938701    4.48544533175056
O         5.24270896288547    2.93763692726679    4.66564442566545
P         2.01148107608971    4.50577347957610    2.84343069056424
P         4.02230843057220    3.73406353141705    0.65188299612476
P         4.48656409605579    0.78263569301377    1.37312180517046
Mo        3.29688373486194    2.50875808769275    2.51441324788466
H         2.16225032975725    2.23211728551294    1.36948776684321

