77
CSD_code = TONXUP | q = 0 | S = 0 | Stoichiometry = C19H51P2RhSi4 | MND = 5
Rh        2.16307024285745   -0.94646736375077    4.23584973236552
P         3.89790791074438    0.60727519306310    3.61219453361409
P         2.38695315765676   -0.34154138931801    6.59094907130750
Si        0.37846237866245    0.36098960784331    3.38662020397346
Si        0.65576956471884   -2.67612829496503    4.87236724192098
Si        2.25674593917158   -2.17075595555100    2.20512038595616
Si        4.30425627649741   -3.40610982479616    2.54743357732397
C         4.48826955126797    0.81478769834852    1.87843621371332
C         3.72229986108250    2.40495606607067    4.05717138883551
C         5.56666217445745    0.29880041810268    4.35126063550566
C         3.01000829091909    1.29073413901969    7.20790392686629
C         3.60488502748139   -1.40012978840774    7.49119712950209
C         0.97974301377199   -0.49784408392330    7.76671297353853
C        -0.28953247685510    1.52085733291732    4.80300380700843
C        -1.19194556433461   -0.47228581281680    2.64072911475112
C         0.86411600847618    1.60556094918050    1.97597558003946
C         1.40181645207156   -4.00125498973687    6.09654755647620
C        -1.07666956688952   -2.34387837659239    5.69516295366064
C         0.26429050543607   -3.76556830091548    3.34931110917265
C        -0.75375182846666   -4.86095487855524    3.46875415201727
C         0.92555271775890   -3.54195535689136    2.21111328012471
C         0.68613063930556   -4.37553650449324    0.98508514185319
C         2.20606655018151   -1.51714567082120    0.38044584108571
C         4.08032248349931   -5.28644247706487    2.27733516725269
C         4.72569538570280   -3.17434454382903    4.41303564532380
C         5.88243795128352   -2.93464923191034    1.55333449731929
H         5.34801605216750    1.48378492722164    1.84553383253138
H         4.76613208533677   -0.15570416827111    1.47605252801646
H         3.68810146855776    1.22737550985668    1.27112178007752
H         4.40282632856463    2.66927032438796    4.86331005844639
H         3.94637972834103    3.02741698438668    3.19370273604900
H         2.70410849246187    2.60687987707012    4.37826190500144
H         5.49498594929231    0.20497290780494    5.43294862396105
H         5.96201958671635   -0.63124687737024    3.94970975206059
H         6.24761802390375    1.11382745188906    4.10693166533060
H         3.06520579318835    1.28411354623375    8.29606707808680
H         3.99935523448669    1.49263048991465    6.80558559787049
H         2.33959263222292    2.08704911424067    6.89375926446800
H         3.33677204169403   -2.44583515440037    7.36864911139319
H         4.60389911056253   -1.25355755134993    7.08433786440724
H         3.61317031170952   -1.15142468590753    8.55206207301460
H         0.20055267582427    0.20591771989090    7.48610320510633
H         0.57075961906612   -1.50125810847087    7.71227933093319
H         1.30353289422045   -0.28902734652793    8.78609985260220
H         0.50255102574179    1.88120668734501    5.45124042198376
H        -0.78849313309354    2.38439573428985    4.37584914012471
H        -1.00964530958029    0.99531318638720    5.41875947881253
H        -1.80597158045435    0.26425456135364    2.13283539112453
H        -0.91815337129983   -1.23718339381323    1.92527939282269
H        -1.79393106363724   -0.94193694193037    3.40588213372734
H         1.71970470297481    2.21940524606000    2.22865298574845
H         1.08800594143785    1.07216808542017    1.06081383056850
H         0.03001763542629    2.27054089760450    1.77376643326121
H         0.78351025905334   -4.89304072302578    6.07341068727179
H         2.40580432181543   -4.29903646378033    5.81515669444495
H         1.42561101261313   -3.65107304825226    7.12436645526029
H        -1.19199669386235   -2.91328878790283    6.61278902835308
H        -1.22758988294474   -1.29775532730524    5.93119028218532
H        -1.87308071643837   -2.64278975434384    5.02365908525854
H        -1.16490546402826   -4.91506452597910    4.47273760371585
H        -1.57507451353250   -4.69537621109311    2.76967062309720
H        -0.31050672473487   -5.82845882833877    3.22560429019089
H        -0.34457244576237   -4.26359943369975    0.64457382616921
H         1.34747514586314   -4.09341668330570    0.17206943885912
H         0.84205220167366   -5.43326194609422    1.20249975446193
H         2.72105774726947   -0.57398420149397    0.25798682478738
H         2.67542939983056   -2.22973761601919   -0.29053166186957
H         1.18099414021973   -1.37850249414272    0.05566712792305
H         3.21143423517048   -5.64165620621821    2.82237870407849
H         3.92410446598342   -5.51844137107083    1.22871620382779
H         4.94170235979151   -5.85681935248854    2.61579668714128
H         4.52079264649768   -4.08073413030165    4.97518561793238
H         5.76633240215397   -2.91621147641654    4.59275898522202
H         4.10070713392760   -2.37995144544056    4.83774298452451
H         6.69052544670321   -3.63642305979248    1.74247083045258
H         5.68633581501477   -2.94621739615507    0.48560598562427
H         6.24858218547027   -1.94357710087238    1.80474761302993

