75
CSD_code = TOPCOQ | q = 1 | S = 0 | Stoichiometry = C37H34N2PRu(1+) | MND = 9
Ru        5.75384225407289    7.72491203896289    7.75766318928659
P         6.62655696332913    5.58324981339103    7.80898856670227
N         4.76244737931562    7.31668256774239    9.53139609556685
N         7.14405265654113    8.24086507679610    9.14562239206700
C         3.86989698398524    8.35373016308195    6.56250480741316
C         4.68813751318973    7.63743306528469    5.68603791016743
C         6.04128950929863    8.02944871598815    5.50303392459702
C         6.54122503940003    9.15545263589047    6.17199401650430
C         5.69629880969556    9.89992464049536    7.03481584413991
C         4.37591533430441    9.49510454340649    7.23836308536239
C         6.85847627868165    3.86964402712417    5.57983449373010
C         6.33049826253815    3.08549984847786    4.56774229843901
C         4.95912629761533    2.96642991863730    4.41649229597924
C         4.10597715869047    3.63973502192775    5.27792676042025
C         4.62776171135624    4.42886974331758    6.28524096822269
C         6.00806004700758    4.54417732503326    6.44925111789647
C         9.09531543291210    6.41397089159551    6.87198838473217
C        10.46241289308931    6.33166549818478    6.68236176501453
C        11.17772523323154    5.29449573111582    7.25893308988103
C        10.52119064026988    4.33688575071928    8.01532512813508
C         9.15324247178887    4.41387929489973    8.20682510862105
C         8.43265894042006    5.46313572797616    7.64159328478479
C         5.44570831824318    3.52073998359557    9.36153084303309
C         5.25118978487580    2.85010412201367   10.55837611524578
C         5.90682815462902    3.26327024004981   11.70620156138954
C         6.77137030578704    4.34784760980252   11.65960546602653
C         6.97373449556423    5.01939220413656   10.46946236874428
C         6.30789793226873    4.61011662095251    9.31278007189852
C         1.22583468033212    7.46027118186395    8.63491788994528
C         0.20634346269471    8.38264751020622    8.47567876884393
C         0.30604776528867    9.63479445443715    9.05871386023307
C         1.42555027393139    9.95666100778184    9.80685928707391
C         2.44380126172135    9.03228145069457    9.97000134780554
C         2.35497416976752    7.77839886851548    9.37979406263619
C         8.38320000869639    8.72128295103091    9.16791181708438
C         8.74228984406692    9.05751317902589   10.47783814721626
C         7.65885212510027    8.76435846705857   11.28666389063295
C         6.66466904746639    8.25291947846757   10.43733090322617
C         5.37764879792513    7.72467614590698   10.60179830244970
C         3.43843892850356    6.73434164615107    9.58926706055264
C         3.14484086560900    5.97952863470182   10.89350552654574
H         2.81874534586097    8.10662396589769    6.65402136256618
H         4.27932058511924    6.83495970150584    5.08236614975697
H         6.64504618419833    7.51684813046051    4.76016043968596
H         7.53766870584605    9.52397636462744    5.95433836827593
H         6.06375056769182   10.81412479983675    7.48795247523636
H         3.70677134274317   10.09369911718635    7.84561278006830
H         7.92895376033384    3.95463922868667    5.69493994493286
H         6.99486723648672    2.56336229164716    3.89642188068905
H         4.55344611622710    2.35123724887824    3.62845803705120
H         3.03631954504161    3.54769974017146    5.16171854873940
H         3.96927331651525    4.96507492065192    6.95832255534352
H         8.52516900803554    7.21603981036688    6.42352854639764
H        10.97225913539014    7.07351758473034    6.08606497330141
H        12.24527906225943    5.23076630771541    7.11608659387147
H        11.07673950121120    3.52398743183881    8.45728669635462
H         8.64525054624599    3.66048110150597    8.79101000749028
H         4.93944224372123    3.18419234945773    8.46880103911235
H         4.58689889754424    2.00006682866181   10.59191243483879
H         5.75022059556890    2.73759922366887   12.63546278432718
H         7.29119742794517    4.66518623824396   12.55055877502676
H         7.66066734850152    5.85374266512967   10.41797878172228
H         1.14070150553104    6.48079199672372    8.18447695157801
H        -0.66744860102755    8.12228456290813    7.89801827030869
H        -0.48810040131020   10.35451616733769    8.93541068645015
H         1.50571169994652   10.92822874892126   10.27082502474667
H         3.31342563835174    9.29246201027815   10.55798167145809
H         8.98727393197169    8.80958550357445    8.28355002469492
H         9.68429303678118    9.46934545720771   10.78016729915876
H         7.57904823213438    8.89590998419276   12.34714520210908
H         4.93816227529024    7.63571485809157   11.58808067634029
H         3.39257885500647    6.00892336816792    8.76439041185637
H         3.97470611434581    5.32629495310030   11.15159800219424
H         2.25218251558425    5.37541154016338   10.75610958925257
H         2.95475069171072    6.66876800203134   11.71217119682687

