53
CSD_code = TOPFIQ | q = 0 | S = 0 | Stoichiometry = C25H23ClN2ORu | MND = 10
Ru        6.28410171520033    7.59170442880503    2.28804451994585
Cl        7.24110797524001    7.39857192577100    0.15251682761198
O         5.51826469199628   10.23857506431234    4.76844191754959
C         6.82883167939092    9.54085280706334    7.30182149850311
H         5.93103876181581   10.03623840376176    6.97246916534514
C         7.08798553095312    9.38315038097488    8.66857567336810
H         6.36600535631233    9.76177107242600    9.37689954513433
C         8.22700352499158    8.76774958675298    9.11238956164340
H         8.41572795498823    8.65515406903836   10.16975267944541
C        10.37268186347041    7.63477128209079    8.59128813687837
H        10.57229040769372    7.52037197058549    9.64658704710810
C        11.26484480986815    7.17238531262061    7.65846387616509
H        12.17682192934860    6.69018369872931    7.97868999537757
C        11.01502877455546    7.31100064613208    6.29179880302535
H        11.71382481364049    6.94444061291092    5.55738047517074
N         9.60604251299189    8.03852668237133    4.51146609754479
C         8.07480016771951    8.80231427124439    2.77160805040303
H         8.79224285339153    8.87764947970901    1.95817948545646
C         6.85216091188527    9.54173131186009    2.85966644377154
C         6.51177044627656    9.72838122266658    4.29177306399496
C         5.99487183445411    9.69808868968952    1.75150253669908
H         6.43492151224622    9.93937966650527    0.78522377906596
H         5.02411437531117   10.14900788574069    1.94453714221635
N         7.57105329719410    9.17789123129205    4.99829487991829
C         7.73811647355900    9.06836475428801    6.38292930769670
C         9.17777862830192    8.27273621077060    8.19565770731062
C         9.85686700275615    7.92858746318534    5.86126730205755
C         8.53181653130616    8.61902619495992    4.13129264801086
C         8.92386970223001    8.42393086821238    6.81291421466735
C         4.21372231974812    6.62207499517950    2.18331704811741
C         5.18965696133202    5.68240578421715    1.79913879178547
H         5.09219524615795    5.15762075368111    0.85369087187187
C         6.28333411363994    5.35570673314264    2.64597330455842
H         6.98120808172752    4.58276547070152    2.34057071977286
C         6.39150363275833    5.92730873912261    3.93304323478119
C         5.43094921366423    6.88833686924678    4.31186108569463
H         5.45575811967491    7.30423411763017    5.31366642992737
C         4.38799776106122    7.26381398628209    3.43864349633426
H         3.64390701208995    7.97338923431660    3.78632268198275
C         3.01020349971620    6.91611288021944    1.32123764973836
H         2.52445031715253    7.81526450430654    1.71668682371051
C         2.01886647224048    5.75102190603075    1.41416857682748
H         1.70985563733195    5.58870280823296    2.44496119399720
H         2.46954844181790    4.83417047300322    1.04035048143623
H         1.13598455491578    5.96838474087770    0.81880337264897
C         3.41009849110480    7.18449535754071   -0.13121224528843
H         4.25098316878166    7.87614813430065   -0.17098182646228
H         2.57352593239755    7.61775651972938   -0.67304221632619
H         3.70059054336182    6.26650093259357   -0.63535444154275
C         7.45924691669219    5.47231793474872    4.88038571917760
H         7.38167894152474    4.39686771935775    5.03851198075856
H         7.37224418874720    5.97341575573437    5.84275294856726
H         8.45010439327439    5.67814645533550    4.47407193684693

