113
CSD_code = TOPGAH | q = 1 | S = 0 | Stoichiometry = C60H48AgP4(1+) | MND = 4
Ag       10.91757428524952   -1.47030874745316    3.80725943362359
P        10.54523833218224   -2.93315237942122    5.91379294003916
P        12.68195264473198   -0.69028242187057    5.38405680722787
C         9.03207124404302   -3.73988331607108    6.51493812879565
C         7.96671776941733   -2.92716737774753    6.90166262116619
C         6.75613630447667   -3.49088513675917    7.25467434005792
C         6.59168298396952   -4.86716219482817    7.20177932828149
C         7.63938363667785   -5.67552814595632    6.79271580230465
C         8.85651605123147   -5.11763269400922    6.44251852590361
C        11.80051602435033   -4.24846380102047    6.06502471078886
C        12.44335027170569   -4.70777790047220    4.92202432887824
C        13.40765750929375   -5.69398021821675    5.01259103016106
C        13.73598271740899   -6.22534814521716    6.24824514416949
C        13.09652704471586   -5.77167428719152    7.39164865182489
C        12.13178533607911   -4.78608247819988    7.30569556986384
C        11.04350749330997   -1.86405674401596    7.30356087679245
C        10.53153071405190   -2.01977891203710    8.58770024178155
C        10.95154057402978   -1.19484084149920    9.61603911597801
C        11.88853027400386   -0.20350971900946    9.37371571652243
C        12.40947947212811   -0.03976107016629    8.10266868935680
C        11.99832713636770   -0.86536083209567    7.06098743352258
C        14.06174706118042   -1.87488282037450    5.40589000345858
C        14.55532665829798   -2.28115764990843    4.16919043871442
C        15.59517286942099   -3.18703953127926    4.09683738414287
C        16.14289733354119   -3.69848682097659    5.26250495639752
C        15.65272493851678   -3.29932344851609    6.49529531244488
C        14.61444671627731   -2.38864318043419    6.57370856564831
C        13.50132371530499    0.92974067033716    5.45064789480405
C        14.86818582413521    1.09858036727706    5.64063378467243
C        15.39989575566858    2.37619511582379    5.66917857904366
C        14.57860962941026    3.48019687466037    5.50713304429719
C        13.21652534703677    3.31305034629351    5.30698315218427
C        12.67953721110768    2.04114131606489    5.27017548564168
H         8.10125850829455   -1.85236627114854    6.93558799796331
H         5.93838550941190   -2.85884170816269    7.56815343947021
H         5.64521445409118   -5.30761990803266    7.47637345129286
H         7.50899005552009   -6.74660336468127    6.74724766644002
H         9.67299650347087   -5.75010493060883    6.12135234326750
H        12.18906378560852   -4.28471589022028    3.95471722346045
H        13.90315021507190   -6.04186829703695    4.11847454799352
H        14.49043116177397   -6.99354755046626    6.32268474429372
H        13.35180575424715   -6.18819234064318    8.35450876198182
H        11.63500941440411   -4.43300549173658    8.19850161075051
H         9.79198524976828   -2.78390828893823    8.78352189556224
H        10.54520436156676   -1.32617123272964   10.60742109201987
H        12.21500859795883    0.44225105554665   10.17450338362367
H        13.14023521921339    0.73459093026215    7.91521814563152
H        14.11153201685980   -1.88003109658174    3.26393799809913
H        15.97102068704201   -3.49926229809236    3.13371719302952
H        16.95228159781324   -4.41061800975511    5.21094309525634
H        16.08115861723987   -3.69908833994661    7.40207125677505
H        14.23375203575646   -2.08124128613351    7.53784155407293
H        15.50866349249337    0.23686042482949    5.76698786099583
H        16.46058957070392    2.50991517088719    5.81989204288989
H        15.00084922822517    4.47312428998434    5.53197851525289
H        12.57851640646512    4.17421320700633    5.17567987514454
H        11.61700464631222    1.89285206847852    5.10749526079970
P        11.28990822193171   -2.93315556515732    1.70071545921826
P         9.15319263866158   -0.69028395043523    2.23045245294881
C        12.80307734041577   -3.73988581683961    1.09957605067894
C        13.86843032284641   -2.92716967115273    0.71285185499510
C        15.07901043626146   -3.49088741739018    0.35983721971993
C        15.24346377146108   -4.86716422928781    0.41273293302520
C        14.19576256403989   -5.67553021480174    0.82179459129068
C        12.97863161453624   -5.11763481709143    1.17199448174586
C        10.03462885000369   -4.24846528454223    1.54948972878698
C         9.39179616433015   -4.70777891879345    2.69249093298600
C         8.42749183984375   -5.69398394541273    2.60192607418396
C         8.09916751599550   -6.22535409739801    1.36627306307246
C         8.73862190907999   -5.77168033272407    0.22286887314916
C         9.70336059047717   -4.78608626372454    0.30882013524309
C        10.79164509341673   -1.86405464851661    0.31094949518859
C        11.30361793215696   -2.01977960778967   -0.97318745299823
C        10.88360576727849   -1.19484505815803   -2.00152957315247
C         9.94661784698431   -0.20351216940757   -1.75920693833726
C         9.42566955981398   -0.03976256609970   -0.48815833886242
C         9.83682334976023   -0.86535635360969    0.55352311434182
C         7.77339956208249   -1.87488608836425    2.20862033505871
C         7.27981919876880   -2.28115765822401    3.44532082127282
C         6.23997220714808   -3.18703848125059    3.51767580327780
C         5.69224781578557   -3.69848815006749    2.35200921136722
C         6.18242083875002   -3.29932787206340    1.11921786592271
C         7.22069942292310   -2.38864833699655    1.04080274405140
C         8.33382069508908    0.92973920887254    2.16386204185292
C         6.96696099897520    1.09857984094376    1.97385237059690
C         6.43525278906491    2.37619476911252    1.94529592863338
C         7.25653641387083    3.48019702278375    2.10736079020457
C         8.61861684001388    3.31304867465000    2.30754557341737
C         9.15560419038227    2.04113882607499    2.34435688659021
H        13.73388840942767   -1.85236878795256    0.67892382995129
H        15.89676105619622   -2.85884409783388    0.04635809920175
H        16.18993223990937   -5.30762188209477    0.13813991233637
H        14.32615663822750   -6.74660496668540    0.86726527221297
H        12.16215118360719   -5.75010646152191    1.49316140730803
H         9.64607951163863   -4.28471303059877    3.65979690939081
H         7.93199565791780   -6.04186688384986    3.49604219989601
H         7.34471911535350   -6.99355329874646    1.29183428491721
H         8.48334606089056   -6.18820197321293   -0.73999014791974
H        10.20013944849634   -4.43301281256099   -0.58398546574407
H        12.04316269082709   -2.78391060496665   -1.16901057927139
H        11.28994645914464   -1.32617282714860   -2.99290925423623
H         9.62014174748890    0.44224975798404   -2.55999375744085
H         8.69491180436593    0.73458905445034   -0.30071033235530
H         7.72361231933217   -1.88002728564903    4.35057239647155
H         5.86412401732761   -3.49925900573055    4.48079672464833
H         4.88286579160644   -4.41062206944900    2.40357269295847
H         5.75398907024461   -3.69909689881376    0.21244276462553
H         7.60139475661500   -2.08124892457309    0.07666918011320
H         6.32647959246553    0.23685963815276    1.84752127811205
H         5.37455401581325    2.50991159140869    1.79462194378967
H         6.83429289690018    4.47312343428455    2.08253218353709
H         9.25663120362212    4.17421150513631    2.43882283666271
H        10.21814204179709    1.89285128504374    2.50700209680241

