76
CSD_code = TOPHAI | q = 0 | S = 0 | Stoichiometry = C39H29F5P2Ru | MND = 8
Ru        4.09512575419793    7.75583891467454   14.64464171562520
P         5.41213236777804    7.59488818482864   12.83222153664052
C         5.31997357553627    5.98341003378776   11.98786049789700
C         4.79094657724842    5.81791202208175   10.71314736010695
C         4.65367647153540    4.54649907064169   10.18213352166002
C         5.02858142628189    3.43596739106995   10.91928006786812
C         5.52952068692688    3.59397186969019   12.20294678653675
C         5.66416468869194    4.85981023279603   12.73737206172786
C         5.29167538566506    8.76910839729423   11.44613327186643
C         4.27259428750229    9.71270247416079   11.44554567321666
C         4.16558441999178   10.61994397395292   10.40589849825155
C         5.07030305571891   10.58085193491398    9.35836785350842
C         6.08000899745686    9.62994164423393    9.34620869234984
C         6.19316345638931    8.72511624616128   10.38450912834636
C         7.22629248082504    7.69666449447302   13.28060500009850
C         7.40092873988920    8.18659983553837   14.71593481576287
P         6.01700489243951    7.60834032927148   15.80214198879773
C         6.53727453193647    5.98216538235551   16.44190947692242
C         7.53979198991449    5.18975121848978   15.89572635469037
C         7.79719847767811    3.93588903049677   16.42411487552637
C         7.05800981234553    3.46271832999407   17.49458538442487
C         6.05687011474810    4.24850863428871   18.04552766503729
C         5.79685669711069    5.49793204307478   17.51882310923228
C         6.30973786555490    8.62189371213070   17.28450441589024
C         5.32573198139284    9.49903528954505   17.71935852198248
C         5.54630616071012   10.29214545991803   18.83109712569583
C         6.74742133327057   10.20591776994062   19.51458160068629
C         7.72607524864064    9.31971903847600   19.09206343249580
C         7.50963869005411    8.52524774576080   17.98261487331353
C         4.59427721405012    9.67791957159512   14.61563101855902
C         4.86173522298232   10.86692375915620   14.62754457657091
C         5.19226171230320   12.22644100805328   14.67031203859624
C         6.39999619833303   12.65848727081458   15.24204726306503
F         7.25224515163750   11.74070198575539   15.73395940744779
C         6.74106690408976   13.99769119174721   15.30624802549326
F         7.90133612241535   14.37703740098103   15.86155532756367
C         5.87600652158211   14.96047768913412   14.79102603882508
F         6.20000483033543   16.26020541788897   14.84961947586707
C         4.67403954388866   14.56210586687573   14.21052151051395
F         3.84352450096926   15.48604053206099   13.70635658696349
C         4.34431231783733   13.21889805142840   14.15425519330300
F         3.18341940069226   12.85419298688665   13.58616836311248
C         2.89664290576913    6.06533196126189   15.46456099662060
C         1.92262759398029    8.12365678669700   15.14100716799688
C         2.01330952973517    7.47929568043933   13.88364250651231
C         2.59811702640820    6.19292999483081   14.09728924772954
C         2.49644422806948    7.27375402556502   16.11798881709547
H         4.48765060524903    6.68192166162704   10.13878410275094
H         4.24659931136899    4.42274428498812    9.18911504819159
H         4.91883622251887    2.44670935315269   10.50015218106411
H         5.80484486254925    2.72858530175341   12.78849656945084
H         6.02067668876157    4.99062047583763   13.75266579457869
H         3.57963533156771    9.73802491220413   12.27683857697527
H         3.37840968180071   11.35894985069899   10.41648962753340
H         4.99028404307766   11.28932705297162    8.54710313377325
H         6.77980964312825    9.59552673466623    8.52365655897542
H         6.97247593381791    7.97399656999420   10.37042878407260
H         7.65103530957331    6.69655012521518   13.15027739314896
H         7.72453734436729    8.37698710692916   12.58405358888037
H         7.31830997099763    9.27912182836879   14.75293444135446
H         8.37076184265859    7.89926532155503   15.13288420636370
H         8.13008098063419    5.54820023901641   15.06480086324290
H         8.57987638580725    3.32563710448578   15.99658313774095
H         7.26189305152050    2.48326353027827   17.90117438411796
H         5.48180577108406    3.88245656315530   18.88374797912368
H         5.01967911708361    6.12537198951687   17.93881216286479
H         4.39697736126812    9.56046305597339   17.16497147358674
H         4.78259019957925   10.98003507388628   19.16383876576198
H         6.92284810646035   10.82845459074173   20.37952596337188
H         8.66025018741456    9.25107721294553   19.63010294962112
H         8.26679883645924    7.82500254610481   17.65616881668167
H         1.42908161504057    9.06815133579867   15.33351846867751
H         1.53916223208903    7.80720464033545   12.96758281707858
H         2.67321765512863    5.40877822258207   13.35365100464641
H         3.23029446658743    5.16285495298277   15.96118135599980
H         2.44372014989822    7.41983647702693   17.19007098237532

