71
CSD_code = TOPKUG | q = 0 | S = 0 | Stoichiometry = C34H26N6O2S2Zn | MND = 6
C         4.79669604974435   -4.74870681985234    5.17261982495278
H         4.16614325653703   -5.57917386170528    4.90903053998548
C        -2.07822538098077    3.70286592726458    4.07912129705372
H        -3.10994372009922    4.00611912179759    3.98282153960161
S         6.83162425283870   -3.38401872852446    5.93684863554691
O         4.23752055934584   -0.47245008343946    5.23215783356631
C         0.01119863150891    1.21429717528688   10.85424699975563
H        -0.90419279185429    1.28642839724695   11.40649981825690
C        -1.76382573681249    2.45876808803379    4.60082723356309
H        -2.55139380203752    1.78628413228629    4.90796352268828
Zn        4.40118526613407    1.58329148728584    5.75791873621675
S         0.02860478031160    1.68711329535548    9.19868255371471
N         6.25171627741595    0.90965942069383    6.08623908907299
C         8.39725136146857    1.24201169182357    7.21848518077251
C         4.38501543091808   -3.40986359065277    5.12324461789219
H         3.41054868736077   -3.07447619484645    4.82130096262823
O         3.68494014195121    1.18858606489398    7.75122925583547
N         2.47209312346770    2.07304960074458    5.64300877990173
C         1.72796076889974    1.29704718078469    9.06901878379835
C         6.68177231854019    3.06964166502684    6.77975008678629
N         4.23494364072607    2.25444498790152    3.77935356305592
C         5.37109217787727   -2.52518147366563    5.50868623183034
C         9.22881255494991    0.41954147905270    6.45197387074164
H         8.95324430214814    0.18130682977217    5.43370413960514
C         7.11391251481559    1.70937906783154    6.68714993696674
C         8.79756449375498    1.57016363196873    8.51639628232958
H         8.14928418321387    2.17997176365064    9.12820841440026
C         5.70180824280969    5.63627060576800    6.88804697159871
H         5.27948193516701    6.62706649399916    6.92855429920678
N         6.36230700182087   -0.41650000583744    6.01348698777383
H         7.15985154290142   -0.90035670141884    6.42225859254323
C        10.80941417475463    0.28562717274786    8.25247361809905
H        11.74178153346507   -0.08340754861088    8.65300335490221
C         2.95816679115721    2.58359393600769    3.44652073036552
C         0.59033174303451    2.92059550077436    4.32677912943550
N         5.39794152923751    3.32041727406042    6.40991686224404
C         5.26522482143099   -1.09810726176913    5.57459806804891
C         4.92159271424139    2.59411726329301    1.52171270109515
H         5.71789595939599    2.59253138691146    0.79546769247068
C         6.08502962136418   -4.89588218009816    5.58932948079411
H         6.65044768319515   -5.79713322604716    5.71658021405991
C         9.99202922635139    1.09813854589197    9.02369491849554
H        10.28691844411320    1.35854183055482   10.02994226366095
C         7.52637243498643    4.12368726767336    7.18310221395184
H         8.55700767634637    3.91344483702187    7.42392613265132
C         1.23171173718556    0.78297317618222   11.27768342865464
H         1.41907565180303    0.44477326110463   12.28131335025271
C         2.62812832483045    2.90143374492980    2.11371851354797
H         1.60187002010953    3.11525246982136    1.85846355280562
C         3.60871729553487    2.91027946364213    1.15475768307333
H         3.37191306591802    3.14919456641604    0.12826994135115
C         0.25994369216083    4.17298346054143    3.80391619556490
H         1.05109313637517    4.84925031538502    3.51366224727665
C         7.03508297530316    5.40267788455959    7.24366986614455
H         7.66822268535758    6.22139971252797    7.55315912214671
C         5.16577245011060    2.26520028841911    2.84014328454153
H         6.16193077363485    1.99849761938154    3.16812786247525
C        -0.44359408267138    2.06919475625715    4.72601745459996
H        -0.20722190836943    1.08103711772756    5.09555529420290
N         1.78693152055209    1.94633195238787    6.77606719685978
H         0.79953798362122    2.18956200906183    6.83085631861875
C         2.20895319539437    0.82699018495292   10.27404639713097
H         3.23396952691136    0.53157112067006   10.39772719504045
C        -1.06126548532936    4.55589212825787    3.67906453700800
H        -1.30141002979657    5.52806790793204    3.27341741498237
C        10.42293496475054   -0.05030324109120    6.96553632522757
H        11.05632673795130   -0.67914676798937    6.35685960913967
C         1.99279555069809    2.52370758991945    4.50031792127446
C         2.46904362825432    1.46312607290546    7.85495872029241
C         4.94422956765529    4.56073301906803    6.46880277478912
H         3.91486060411684    4.69737474005830    6.16260583107365

