92
CSD_code = TOPLUI | q = 0 | S = 0 | Stoichiometry = C48H39ClCuP3 | MND = 4
Cu        7.50909109370502    6.42903379278677   14.35941500269423
Cl        9.54664070615307    7.11625552765834   14.02775458641388
P         5.04523624678154    6.87728919237799   16.20718230638857
P         7.08336453761748    4.82705907728631   15.94285396655538
P         5.66013636827331    6.62559174867762   13.05124247508479
C         4.94868643528723    5.56707075945523   17.48155434985846
C         3.61919511182118    7.92575747052469   16.67139964312388
C         5.95115240706841    4.59812296010703   17.35890360746112
C         4.10894157038636    4.42507073294202   19.41470939956883
H         3.38731322683802    4.35133057950046   20.21549946247258
C         4.01866777980163    5.46722530494903   18.50606533080176
H         3.23549493933677    6.20571684011767   18.60419455279883
C         3.74162767321074    9.24144458812169   17.10452485235015
H         4.72220557340745    9.66651915972041   17.26837038277140
C         6.43514194870777    7.84642742814264   16.90007817449336
C         7.46586048940673    5.79075787375525   11.16753847605630
H         8.15885760751822    6.35564773122371   11.78168360608886
C         9.15933215329353    3.08996078278668   16.80076297378718
H         8.57511486750035    2.26513218453622   16.41446331069172
C         8.68442581290729    4.39368224708432   16.69605520479410
C         6.78451989318818    3.35598678684326   14.91251188164167
C         6.05510399111798    3.57610453616502   18.29113715231493
H         6.85516452009776    2.85274368735126   18.21408365645343
C         5.66004907746101    1.34564959204897   14.24372213410458
H         4.93208993052029    0.57198195494785   14.44185815032446
C         5.12727625233451    3.48990973716129   19.31594700913313
H         5.19850342236883    2.69078017611579   20.03942175229199
C         5.84757596043139    2.36104890741729   15.16628479022901
H         5.26072405089031    2.38445632131883   16.07479320567013
C         5.46726357240334    8.34829961981337   12.50788736293129
C         8.63253873225781    9.30742269298654   17.76866407298071
H         9.49605440080417    9.86170053775910   18.10544142926584
C         8.21107411076444    9.41299811551740   16.45324803263603
H         8.74371618944320   10.04277764010277   15.75742971013428
C         3.92526628519900    6.09674880792972   13.25918056229218
C         6.85345525852655    7.75704229013241   18.22386364027627
H         6.33001700841971    7.11541413854537   18.91937080558600
C         6.11782210027976    5.74331053834486   11.52219696878455
C         7.11696747128512    8.68617232125372   16.02066780868023
H         6.78177337730465    8.77708465148389   14.99470329165134
C         7.91535508114276    5.11127472497712   10.05179217982659
H         8.95957636590942    5.15691070202566    9.77975891768639
C         9.46031193463554    5.45377768632911   17.15582616822211
H         9.10246127984129    6.46692254304460   17.03367551628416
C         7.94808381981815    8.48798856967832   18.65202150045751
H         8.27289864435655    8.40841695523967   19.67972523630687
C         7.52080945410062    3.32671784341860   13.72851447748883
H         8.24194864167930    4.11524895826033   13.54123521626946
C         6.07989781550452    8.85835989982488   11.36899411042389
H         6.62827228505737    8.20143000967098   10.70938952113459
C         2.84016725786124    6.75194134915307   12.68953903142190
H         2.99276412061133    7.64187461644186   12.09575605154820
C        10.69154075514030    5.21088288615874   17.73439201607102
H        11.29435563619573    6.03679511218811   18.08140070246944
C         4.78073459405115    9.20941806730124   13.36461319520554
H         4.31426628006235    8.81047472146479   14.25838518546588
C         2.60906605476033   10.00489276397367   17.32736590660971
H         2.71062459292150   11.02419178583708   17.67152777166690
C        10.39259279875371    2.85493656728175   17.38051641596151
H        10.76300073991861    1.84263730599878   17.45889040799767
C         1.35040679653236    9.47022910100356   17.10943174177017
H         0.46988801825131   10.07098705683678   17.28382794936907
C        11.15653373078039    3.91115592373160   17.85026562011905
H        12.12203785440397    3.71995265690697   18.29536980426280
C         6.39376404256326    1.32107337078795   13.06949421599227
H         6.23462904493303    0.53020443367424   12.35157262527668
C         2.34987319857783    7.40034062984725   16.43325292242238
H         2.25973573469784    6.38476413697876   16.07065426995682
C         5.23281765580294    4.98772124089886   10.76277842739120
H         4.18883878725486    4.93308089822134   11.03703418396674
C         1.22248766543370    8.16512128980234   16.65986221051545
H         0.24251569893105    7.74695836864459   16.47985209045552
C         5.98501930965626   10.20932099417039   11.08331979495219
H         6.45939430431481   10.60146570362426   10.19563657580442
C         4.68962524575875   10.55591018843062   13.07348165937337
H         4.15307341038007   11.21418473740103   13.74150100792885
C         3.71357526181276    4.94614374463203   14.01276645771145
H         4.56642659008639    4.44374191208058   14.45085477425612
C         1.56120718619881    6.25761099510279   12.87964970435582
H         0.71945688223547    6.77126355825590   12.43817916585695
C         7.02832810846153    4.36191531183757    9.29430311242438
H         7.37978293438906    3.82128045023340    8.42752531471562
C         5.29276094620305   11.05846603117027   11.93047160112833
H         5.22662829755757   12.11237265548978   11.70399883994538
C         7.32864437055536    2.31261217803704   12.81224467973935
H         7.89759012454864    2.30012208348701   11.89454510631882
C         1.35619218986307    5.10841913582552   13.62508567401570
H         0.35519470577872    4.72802458082085   13.76744531777089
C         2.43681118396988    4.44853557035277   14.19015770848577
H         2.28333552495418    3.55149350390886   14.77309107261974
C         5.69248574322249    4.29932333069413    9.65351697657806
H         5.00216914563648    3.71008212356645    9.06704478430885

