67
CSD_code = TOPSID | q = 0 | S = 0 | Stoichiometry = C24H32N2NiO6S2 | MND = 6
Ni        3.93782136352786   -6.81081782005151   -0.00999088474537
S        -0.19413382387934   -4.91939658440069   -5.32018149068826
N         3.23814785424537   -7.38065069074877   -2.17901994619145
H         2.70483139251018   -8.22038823262503   -2.40887567705109
O         5.87880592521646   -7.40286376446988   -0.63528863503783
O         0.26808026181454   -6.10171060178368   -0.97866234856856
O         2.15451087411186   -6.35367806799288    0.12688963774853
C         5.33942252896676   -8.46436953365687   -2.70651023411293
C         6.03641943077223   -8.46490068512671   -1.49223766628435
C         2.31713414079295   -6.23215152815551   -2.27232677321997
H         2.92458098119960   -5.31782537169606   -2.24884136045885
C         4.41778510776879   -7.32339436688643   -3.05163608377558
H         4.92086156944488   -6.37149008060796   -2.85227658358017
H         4.15879837719780   -7.37698748556627   -4.11867379098984
C         0.68163704883198   -4.96206094148179   -3.72312960163211
H         1.35070222839072   -4.10166243999998   -3.69350567833528
H        -0.08200229523767   -4.85310273501581   -2.95608696385615
C         7.02178153898810  -10.59007328956521   -2.02563243096869
H         7.67602837025431  -11.40552261806669   -1.75944756729744
C         6.32846675525788  -10.60888994217793   -3.22207865110921
H         6.43659477410156  -11.44160351653696   -3.89910675859333
C         1.43646209773842   -6.26717769097814   -3.52244001049616
H         2.06475339011988   -6.46143842329450   -4.39703089856986
H         0.70921468150497   -7.07789931010609   -3.43214113674930
C         1.17930648363741   -4.44295104334474   -6.41278545278693
H         0.76529908869699   -4.34663734430968   -7.41051513276471
H         1.94879957047710   -5.20981298797997   -6.40776996206071
H         1.58691821434853   -3.49026190993943   -6.08626763611067
C         6.87670473695752   -9.51850516062829   -1.16142740404469
H         7.41337048067079   -9.49864664560055   -0.22206064658686
C         1.47459384847020   -6.21832001403352   -0.95017074523831
C         5.49665920012001   -9.55160936770716   -3.55269969662645
H         4.96482017413284   -9.56427924623663   -4.49266519510392
H         6.53594095991329   -7.44697462437512    0.07122348336208
S         4.35901623711274   -2.30328828197925    5.32819508422085
N         4.76911586174256   -6.49539419293613    2.17244157875148
H         5.76203033370088   -6.45892391527116    2.40775069718607
O         3.48337612117680   -8.79995728131008    0.62210500728399
O         5.16784284130808   -3.28025269768381    0.98835152331535
O         4.43734180167837   -5.02990071174817   -0.12979411560369
C         4.65425482199470   -8.85551677120102    2.70353429719663
C         4.31843852817141   -9.46330902965901    1.48791522024367
C         4.24156228867057   -5.12164021287595    2.26847590842950
H         3.14594019519798   -5.18520246268267    2.24011206928876
C         4.12111635224844   -7.48721862132580    3.04004966434223
H         3.04754006945362   -7.44824695637655    2.82869355782779
H         4.28522575078021   -7.28725831104357    4.10855427173937
C         3.96088709843856   -3.07542518151337    3.72674580741900
H         2.88092941590331   -3.22176188408941    3.69343363944631
H         4.25245063651733   -2.35717392532518    2.96353721778628
C         5.66699430103975  -11.37408087872529    2.03740264698456
H         6.05106974245912  -12.34798901448008    1.77688007596348
C         6.01781228432778  -10.77924864317099    3.23555407055732
H         6.68040237602770  -11.28578845201164    3.91957171835276
C         4.71099813691144   -4.38268584533331    3.52277464171655
H         4.56130212155895   -5.02703000529388    4.39442586823786
H         5.77750864184599   -4.16052848800376    3.43603780133144
C         3.25520078840089   -3.25716210992434    6.41394122243336
H         3.37811803951166   -2.85610021324919    7.41403927204332
H         3.53179396967409   -4.30768987495779    6.40374576271536
H         2.22727797820432   -3.12933215187937    6.08618365548960
C         4.81703408896561  -10.71719250989647    1.16433145817758
H         4.54076737993571  -11.17514968541520    0.22367207369068
C         4.66065830594501   -4.38102508988742    0.95127965827127
C         5.51169071733555   -9.53088949183242    3.55882331440414
H         5.77925390569194   -9.07357209758517    4.50000728900779
H         3.20143153700087   -9.39391094616927   -0.08540203571749

