85
CSD_code = TOPYIJ | q = 0 | S = 0 | Stoichiometry = C25H51N4Si4Y | MND = 4
C         0.15869509271962   11.80574917713286    2.43476964401201
C        -0.79593504549399   11.18640446623335    1.62744189635996
H        -1.64238304893631   11.65895334700491    1.16629164205730
C        -0.43040185033111    9.83344344747927    1.55341146688136
C        -0.96909727272921    8.70370173235843    0.92135990910019
H        -1.86671673866020    8.79060112312642    0.32634172933740
C        -0.33540563893421    7.49920167674684    1.07967396673536
H        -0.73246424725762    6.61450269992240    0.60332366434560
C         0.82866528947617    7.38132813014885    1.86060359978345
H         1.28685449711886    6.40809254866074    1.96396174384374
C         1.38572581863562    8.46574706311318    2.48983051984817
H         2.26926830734143    8.37904233056320    3.10838863951321
C         0.76048218617477    9.70871757203830    2.33819216884316
C         0.21927667276015   13.16923406954520    2.83314834020522
H        -0.54765679272651   13.82362559196054    2.41704436428434
C         1.22007909679146   15.00794798386778    4.00581358274637
C        -0.09178256454565   15.79035813696149    3.86588340390335
H        -0.35934020420785   15.94879413957237    2.82397730974097
H         0.02703705857848   16.76639768053866    4.32895552087707
H        -0.90503375764738   15.26938560110755    4.36743395788696
C         2.30177745140611   15.62345272969607    3.10806853056352
H         3.23386889118184   15.07225645021239    3.22766899127410
H         2.46371461257339   16.66532030289346    3.37328675184335
H         1.99622055391443   15.57396874599107    2.06443099588563
C         1.68446759898139   15.06149880424368    5.46528097751531
H         0.89526887955365   14.70806961701313    6.12658608375714
H         1.93759364244691   16.08212881482735    5.74312053869046
H         2.56984741760095   14.43275614588722    5.58499238926244
C         3.84459991053347   11.99438063569269    1.12242726326628
H         3.69425867484021   10.96568803348301    1.46314616336794
H         4.12361584484040   11.94179424995492    0.07395388349817
H         2.89283493482808   12.52528177692857    1.16972136878471
C         5.41102590007354   14.63972498032665    1.37320162620285
H         4.46345901516761   15.08478292982738    1.08988090041648
H         6.02599422991407   14.58993685178165    0.48040492820754
H         5.89742675495678   15.31579648160179    2.06640531167821
C         6.86301675055592   12.00516544225737    1.78266274508699
H         7.69883860949229   12.61089136858297    2.11521030706218
H         6.98962570768908   11.83486308824072    0.71783945701344
H         6.93614511750701   11.04418054286228    2.27944229058454
C         5.99998502813300   15.27791413690965    5.05928107179857
H         6.72955247246269   15.50406916409774    4.28969487398051
H         6.41220072067686   15.61327564353855    6.00548577165452
H         5.11413889034449   15.87068933020756    4.85661608721033
C         7.32140857293335   12.52861016842576    5.28300214612413
H         7.22240946537988   11.44808102464623    5.29182714751850
H         7.81511355912553   12.82219262676545    6.20447608972295
H         7.98098736867771   12.79040780825235    4.46356383410595
C         4.65204932297634   13.05537121615881    6.72768257639135
H         4.17237637743874   13.94993791174142    7.11456512857897
H         5.32702636403154   12.70594937678322    7.50223795709913
H         3.89141240970923   12.27860274460347    6.59097648107668
C         5.06221015133084    9.32788435483227    4.04266381030310
H         4.46280841029829    9.07028291111972    3.17008150360991
H         5.96859909026552    8.73135219052812    3.99304300014642
H         5.35372787309067   10.37528528094809    3.96479371422262
C         5.37514663314822    9.26510457777510    7.11688928579779
H         5.82433236167206   10.25195111137905    7.09003857445359
H         6.17658502178363    8.53491201998399    7.06403097049366
H         4.88955922503475    9.14991341423447    8.07939463888197
C         3.57334136958676    7.19264663859956    5.74806650696491
H         3.13487032014037    6.96282224444753    6.71266486130198
H         4.41434673150059    6.52260589034891    5.60156002841083
H         2.83106290660092    6.96266247464818    4.99149875658252
C         0.60770208452960   11.71631000234433    6.77651167343401
H         1.26735898450896   12.45612732370401    7.22578449031653
H        -0.30083077733159   11.69093474021393    7.37032348277578
H         0.32844933205359   12.04879748120502    5.77334477388660
C         1.83231115147788    9.47700366588753    8.51761162789928
H         2.27068077085907    8.48634878597520    8.54761057798903
H         0.93681378350431    9.46010545964193    9.12973626287703
H         2.53608328242334   10.16186852068619    8.97811342519154
C         0.14251637957190    8.75985630501124    6.01870801269448
H        -0.10337524860445    8.99888900859132    4.98792216140025
H        -0.77866515952195    8.77859302208411    6.59268058275666
H         0.51873031117363    7.74308859014280    6.03591953741847
Y         2.74132525293906   11.74558790830653    4.16281891254061
N         1.11852090908060   10.90566408883591    2.86478060992141
N         1.12768806900055   13.59377987711330    3.64479546143216
N         4.65375188049827   12.86037472536432    3.77890724246685
N         2.83258308531752   10.17342941606209    5.72013284569519
Si        5.20402543292607   12.89374344147900    2.14184406737822
Si        5.62515017500264   13.39738470469505    5.10390394240010
Si        4.12225747164304    9.02526851172365    5.68754933149369
Si        1.44000482644287    9.98345364947637    6.71738758737816

