91
CSD_code = TOPYII | q = 0 | S = 0 | Stoichiometry = C40H43Cl2N3P2Ru | MND = 6
Ru        5.53793230372343   14.93536414637387   11.94091150145458
Cl        7.44769022907486   14.01794044957402   10.82001550152591
Cl        3.49786041159209   16.14436604847486   12.39518646603087
N         4.79367177951290   15.13631792898165    9.90416843580155
C         5.59136371602491   16.15422520345504    9.22397615781143
H         5.14247968380124   16.45412853674305    8.26650393200756
H         6.58780017310982   15.73861759147296    9.03552790553886
C         5.70548569976554   17.35681152878518   10.15227964502638
H         6.29313806342874   18.14583593937716    9.67000939789832
H         4.70232208005970   17.73820621542208   10.37686735873017
N         6.32123410366301   16.93593785907687   11.41625117542078
C         6.21458009595119   17.98091100068205   12.43360205579065
H         6.63239405720778   17.59069366546323   13.36687011764673
H         5.15640430304042   18.20058459469048   12.59774358484649
C         6.96297935695806   19.26745003124028   12.05791458077462
H         6.42773098705030   19.80660248117446   11.27130038509641
H         6.98662150245413   19.91847452161597   12.94718833474051
N         8.28126604580513   18.92579647114613   11.54490407475004
P         4.40479795684960   12.92004753729449   12.20331083279961
C         2.93902374466411   12.96255557993796   11.10160327598910
C         1.71823771264795   13.47361193409867   11.52708685479891
H         1.59407483168441   13.78572810181179   12.55278223910064
C         0.66412615105600   13.58930144855994   10.63729825422222
H        -0.28014680775347   13.98753150695111   10.97848047979661
C         0.81523447714253   13.20110830211390    9.31685952896308
H        -0.00956263264784   13.29321081785917    8.62547952650398
C         2.02897940676229   12.69071008884406    8.88398809006399
H         2.15247113983502   12.38131785791168    7.85562101950099
C         3.08493915109485   12.57573619191839    9.76855920529600
H         4.02906062273224   12.16116105683152    9.43349103058901
C         5.07892473534818   11.28254638967681   11.74115335209350
C         4.22993351561872   10.23373155905890   11.38452766121842
H         3.16043473249451   10.39316877281037   11.34579999883096
C         4.74936482787010    8.99083849326186   11.07803810669906
H         4.08322135318360    8.18568167314197   10.80158572525937
C         6.11838903514430    8.77527934304493   11.12604180601945
H         6.51951876443100    7.80190573676907   10.88299928869777
C         6.96444858533615    9.80999067730836   11.48150899016968
H         8.03227759619952    9.65294129586669   11.51806757614976
C         6.44742100614203   11.05681831829951   11.78939352136143
H         7.11109744560317   11.86516282142480   12.04927053209404
C         3.60079481663800   12.51977272905867   13.80369023795238
C         3.11509439295477   13.58118670673549   14.56318225198159
H         3.21442934307056   14.58925116251492   14.19052234286675
C         2.51820316990024   13.35650348586374   15.79023502866601
H         2.15370876284313   14.19352917755772   16.36764346323206
C         2.40013183288586   12.06633714594129   16.27767174062163
H         1.94063049326190   11.88683568051009   17.23878842419099
C         2.88068371061148   11.00509184273187   15.52852362125813
H         2.79510004482658    9.99551421431970   15.90495596969962
C         3.47955539393054   11.22516788450404   14.30075260164634
H         3.86933665927161   10.38568470053368   13.74538858678773
P         6.65641660254218   14.84650233130052   13.96551849096271
C         7.37802217171842   13.20460119168240   14.33886689602313
C         6.56774461800077   12.25500887234265   14.95878631171817
H         5.58226580146114   12.53889609025128   15.29621223977729
C         7.02171357297531   10.96628155202485   15.16316205204940
H         6.37748400787719   10.24360430477676   15.64298327909945
C         8.29489646088021   10.60541874172474   14.75428472226219
H         8.64976100155616    9.59707630747269   14.90991962828392
C         9.11082593754132   11.54541051391117   14.14895055185869
H        10.10738671971899   11.27347542484790   13.83199045143230
C         8.65784646850518   12.83650379085142   13.93749005704099
H         9.30431052196995   13.55102181151103   13.45257387994905
C         5.84758514534674   15.24644212421751   15.55794200701222
C         6.25747239858222   14.70104681877281   16.77247752187191
H         7.07456673812938   13.99395884817143   16.80085311164667
C         5.62594967856678   15.06796063677035   17.94637791413671
H         5.94540557679519   14.63396881985266   18.88319519007416
C         4.59263607918613   15.99128166173046   17.92636995370373
H         4.10096897155649   16.27082713840533   18.84703729470086
C         4.19863426537911   16.55673995861294   16.72590136636066
H         3.40011915787787   17.28406877200913   16.70360803155028
C         4.82440129265736   16.18795365489643   15.54815398707655
H         4.50717748801328   16.61576913251362   14.60786976661837
C         8.17218138798319   15.88430843938256   14.12131154879065
C         8.45223132094534   16.64219171493114   15.25568460225450
H         7.76036941195700   16.65900954743465   16.08463272767179
C         9.61644728075814   17.38738487199121   15.33163607483747
H         9.81843222083517   17.96956667999854   16.21942467159001
C        10.52041089353430   17.38643210421388   14.28252572721644
H        11.43069385596359   17.96449720183217   14.34944176940845
C        10.24529101646091   16.64443853357948   13.14471607728434
H        10.93942413091290   16.64128304573980   12.31647472974553
C         9.07716800075092   15.90630741434622   13.06028594229496
H         8.86097563082043   15.34389136779628   12.16119310715293
H         4.82333651373061   14.26058165055870    9.38109561867620
H         3.81595418398245   15.43774110866152    9.96712015118442
H         7.32094148348704   16.79510889827099   11.23386560725301
H         8.77575413545203   19.75916221368967   11.24712853626185
H         8.83540729177211   18.48175226019480   12.27201662721146

