55
CSD_code = TOPYEE | q = 0 | S = 0 | Stoichiometry = C26H22N4O2Zn | MND = 5
Zn       -1.15185992584280   12.95719847820414    5.52514749852053
O        -0.96629891273780   14.28272353595004    4.17881237531764
N        -1.32813589145871   10.94388085990400    5.79175292422893
C         1.65401244961382   12.99329443561269    4.45760462691594
H         2.70298704984673   12.67760375281908    4.50326465006391
C         0.12379318757209   14.91827033556420    4.00261799603401
N        -3.25217496655889   12.65718869369254    5.79097899614391
N         0.70876271073986   12.16218032754349    4.79157120823767
C        -2.43565629490082   10.47706955546076    6.33277255045504
C        -3.47619543440254   11.47876978502071    6.33610380917688
C         1.43482572003888   14.32647930914517    4.06564121968635
C         2.57028553141151   15.12441835186494    3.78002025725331
H         3.54344130480970   14.65300241778626    3.82793925371301
C        -0.19243632338690    8.86599702631689    6.14423570716632
C         0.92100513706795   10.86245063170883    5.14229892970022
C        -0.22642032468629   10.21553359440025    5.70247368661485
C         2.06930492134442   10.09293081756399    4.99650661659160
H         2.95816047085975   10.51377888262068    4.55150585205738
C         1.19026445188521   17.03418820928211    3.42775860442651
H         1.11316444030743   18.08732530886831    3.19029651185595
C        -4.38887596911539   13.38823894408757    5.95963637446753
C        -2.49881684614515    9.15605886461125    6.82088470427200
H        -3.40663507420242    8.77454998166454    7.26361420544357
C         0.05740804468672   16.32190062958584    3.69114953212815
C         2.47361222043830   16.44687708555688    3.45837285653731
C        -4.69200304163044   14.69086728813962    5.57532083354543
H        -3.95322395517756   15.28285687081711    5.06122170266958
C         1.00286201625404    8.14709825803684    5.98705052602343
H         1.05589149271454    7.11968897401436    6.31422602756688
C         2.09386693458075    8.76174444360242    5.41481832084656
H         3.00811342360274    8.19962374639121    5.28706112184071
C        -1.30244081761637   16.94916890964368    3.68037212308345
H        -1.24957500514605   17.99992381243800    3.40654969281902
H        -1.75187316463952   16.85607738434350    4.66920092672557
H        -1.94764461744654   16.42189582942198    2.97918963636615
C         3.67582947874032   17.28852647147505    3.15257809674653
H         4.58888142066869   16.70330506503520    3.22632625251737
H         3.74127829646449   18.12442870305076    3.84851233005179
H         3.60600055736577   17.69899570636681    2.14543691516319
C        -5.94784112907362   15.16534941655821    5.88474756759890
H        -6.22117836929407   16.17191329333129    5.60622196013918
N        -4.73212975130269   11.38798115129378    6.85434930796093
H        -5.12238908909659   10.60027003898537    7.34381726724499
C        -5.34687274426826   12.59673531681920    6.63737487557994
C        -6.60874817842034   13.08188790021964    6.94409919020317
H        -7.33726045047954   12.47769655719523    7.46312010174140
C        -1.38528901712373    8.36240768664380    6.71313780536446
H        -1.40495053813946    7.34126422002523    7.06707795018956
C        -6.88857145809444   14.37690794603162    6.55588367565406
H        -7.85947680288176   14.79441870930691    6.77637990097650
O        -0.72461106368417   13.63597944199250    7.15316607351087
C         0.25792134737249   14.58272598934445    7.35206902501140
H         0.18078987846759   14.96159878291813    8.38322782693458
H         0.17614393847332   15.44907894364799    6.67407294786087
H         1.27437873162391   14.16917332806934    7.22202907106115

