53
CSD_code = TOQBIL | q = 0 | S = 0 | Stoichiometry = C20H29ClN2Pd | MND = 5
Pd        4.54985340182405    1.72869836484334    1.82998578845688
Cl        2.59443398564838    0.68462244338653    2.40758470799392
N         4.51032191570307    2.81933644218189    4.62255379700044
C         4.21511697615025    1.98156575153580   -0.27801558939404
H         3.69364239943287    2.94614876179156   -0.22533634608980
H         3.78282117896015    1.26945189766265   -0.97382938726175
N         5.45963698129084    0.87645036709408    4.58016775604437
C         5.57659091904389    1.91406924084688    0.00598767460547
H         6.15669080059458    1.06568767624572   -0.35533410528907
C         6.13964614928215    2.80633309190954    0.96235344034805
H         5.77386478718638    3.83933392322278    0.94504761888170
C         7.49699509631636    2.65683808347667    1.47948837840985
C         8.13219558290902    1.41227222694864    1.55205404792923
H         7.61145233197382    0.52225036654430    1.22014171442128
C         9.40728853742141    1.29499389099006    2.06657359933239
H         9.88000082771132    0.32385184667368    2.11109307739107
C        10.08218324943609    2.41287016197472    2.53161041077369
H        11.07885312650455    2.31776524601419    2.93645464319028
C         9.46431166697405    3.65126605592744    2.47776005533711
H         9.98083674742114    4.52820415566452    2.84152727270768
C         8.19098561059994    3.77219871431214    1.95735399470077
H         7.71731867557272    4.74403785458642    1.91903240383395
C         4.93381185810759    1.83931946979543    3.80749097614485
C         4.77963555601333    2.47830668766049    5.93298613654398
C         5.38018561091025    1.25278242097914    5.90569400371607
C         4.48646388643200    3.33685344681099    7.11239269837456
H         4.56752328618907    2.74937647478958    8.02280920870470
H         3.48102535830596    3.74637593184807    7.06293425006867
H         5.19588963566112    4.16175599306511    7.17892943513437
C         5.90775539064320    0.45877115597378    7.04803236914282
H         6.99561945065163    0.51454636527790    7.08816409382722
H         5.61626977131758   -0.58534511874009    6.97262208749228
H         5.51576603152576    0.85290513248112    7.98163720357250
C         3.77529149316979    3.95507284278067    4.08247442146755
H         3.91573070307615    3.87433001069058    2.98069685997297
C         4.33968715322687    5.29458827565726    4.54607411671025
H         4.04886595929325    5.52107580440167    5.56728659298943
H         3.95900686095857    6.08549998849618    3.90502449864185
H         5.42556570988293    5.28903208488267    4.47812728111470
C         2.28042121411691    3.80200246284338    4.35838031213727
H         1.94049066793095    2.84949346223411    3.95316401289037
H         1.73382358614221    4.60437170981012    3.87052406695362
H         2.06175738502166    3.83060667085086    5.42243322626338
C         5.89419823684291   -0.38095825597199    3.98736448480752
H         5.87264922511712   -0.18553462364114    2.89184861046310
C         7.31710041789045   -0.75617202812532    4.38827346507815
H         7.97157000205973    0.10873183367927    4.30257485879709
H         7.68435588202262   -1.53078012577882    3.72033124567036
H         7.35978476159290   -1.13954583856799    5.40324159884073
C         4.87704925292890   -1.48531002944593    4.26932195424554
H         4.80995317037302   -1.71269164349062    5.32976861292636
H         5.16407915373976   -2.38939117126604    3.73947661562688
H         3.89833238089942   -1.16721595380778    3.91276574834926

