59
CSD_code = TOQDUY | q = 0 | S = 0 | Stoichiometry = C20H28F2N4NiO4 | MND = 6
Ni        5.63967865681726    4.21194798637822    0.00018804394148
N         7.12275677501839    4.98948488512282   -1.12151234782649
N         4.88050190956852    6.53154541474398   -0.00429496226035
O         6.58639329696913    4.54377107430633    1.63310900005240
O         8.14564118383739    6.08444985537774    1.18223135439309
C         6.87447360465948    5.85968704805205   -2.26994920637953
C         6.37805255525737    7.23565693903268   -1.83367406618699
C         4.95076946479218    7.22179721165284   -1.29132661253341
C         7.96701256521596    5.21387409147817    3.38332207927127
C         9.29696150441738    5.06888120105124    3.75542215791473
C         9.68072116843613    5.01035502756083    5.08364818269613
C         8.71382916964357    5.10431754139317    6.06868703351756
C         7.37952932598713    5.24012575301296    5.72166651568678
C         7.01164251505955    5.28854473133735    4.38914227695880
C         7.55206746572312    5.30133159191373    1.92518278977006
F        10.25069986137506    4.94476338461335    2.81249200441964
H         7.65750624081924    5.51802708684084   -0.40460054866401
H         7.68965202368153    4.19625351799111   -1.41653454342794
H         5.51312285592560    6.98710522623138    0.65139453588599
H         3.93726777408252    6.61014439891764    0.36627657041294
H         6.13047440765508    5.38974999980395   -2.91939528347902
H         7.80451189782530    5.99395410092439   -2.84254078678260
H         7.05090070761153    7.62744611870035   -1.06698187447284
H         6.41430069686151    7.90694999277456   -2.69366734553937
H         4.29899560807799    6.69247299969777   -1.99105673949959
H         4.59839182378862    8.26405306924882   -1.21066000119035
H        10.72509287528069    4.89297351765404    5.32761305002024
H         9.00389951445371    5.06610898183246    7.10786053638215
H         6.62552413973241    5.30715061754500    6.49154696697873
H         5.97374831854765    5.39056117653169    4.10869491054115
N         4.15658906758134    3.43466640036534    1.12195383951671
C         4.40473032768228    2.56404450243374    2.27009786496696
C         4.90096260360188    1.18814829288544    1.83337035125851
C         6.32840062941046    1.20192944965330    1.29142351567585
N         6.39911610639715    1.89243150521443    0.00455361794859
O         4.69315432471730    3.87977526583296   -1.63279552016607
C         3.72723030313460    3.12249953524731   -1.92481133708421
O         3.13274292031722    2.34039007565185   -1.18151561636299
C         3.31318265699636    3.20890906569739   -3.38325490142270
C         1.98336633952482    3.35252210088384   -3.75640571592296
C         1.60055591080194    3.40990635487103   -5.08496353962356
C         2.56824584159414    3.31619370361663   -6.06923260657577
C         3.90240952230050    3.18172746008176   -5.72115832712613
C         4.26934383374554    3.13442232573738   -4.38833960693384
H         5.30711388126556    3.03346780437210   -4.10704864400913
H         4.65703395077351    3.11488588548175   -6.49044638651138
H         2.27891956673772    3.35349397281318   -7.10864777978791
H         0.55626564680949    3.52621124073433   -5.32978846039929
F         1.02882183267228    3.47640409652263   -2.81431341441514
H         5.76689982293369    1.43686783418545   -0.65151785966003
H         7.34253850845829    1.81409966658441   -0.36559289856894
H         6.98003999140749    1.73104215772958    1.99143718348165
H         6.68068523562781    0.15965039696467    1.21064480480011
H         4.22822848835590    0.79684930830425    1.06633032849416
H         4.86432858337556    0.51649312145657    2.69306267988349
H         5.14877462851231    3.03365675550804    2.91972933511646
H         3.47465092253749    2.42972438400134    2.84261237748855
H         3.62144617209569    2.90654501954264    0.40500059237324
H         3.59010247349651    4.22805777588963    1.41733243295425

