31
CSD_code = TOQHIQ | q = 1 | S = 0 | Stoichiometry = C12H12MnO6(1+) | MND = 9
Mn        6.62019792973222    8.18444169263828    1.99484651560436
C         4.24367038942304    8.75482936068383    1.77246639060582
C         4.96543483247507    9.99595512458511    1.62472144372716
C         5.97430300174172   10.10187347175530    0.61387628437072
C         6.36343867437158    8.93253373680773   -0.09073241739259
C         5.68384161643063    7.71852717808920    0.09546815083024
C         4.64921570729738    7.61658297893929    1.04096907132717
O         3.20232275096202    8.82038270462360    2.58975595361287
O         4.46236038325859   10.99587322591774    2.34760661881879
O         6.45082507976632   11.32302556046305    0.35454251925885
C         2.44330494893827    7.65709816777766    2.87911954154177
C         5.20837828928263   12.16970088651425    2.63517725697405
C         7.52680562654894   11.49681356174029   -0.55563454279105
C         6.21399446824776    7.95335817930720    3.74353884656859
C         7.58062347488538    6.64691455237099    1.91709688789907
C         8.08770396914480    9.15452234854717    2.39741127775023
O         5.87886121003708    7.83395926394892    4.82291381737358
O         8.15753877086869    5.67219809423478    1.82924883299245
O         8.99014438590750    9.81917817475745    2.60076733417493
H         7.06502704799565    9.02147794208416   -0.91129600389598
H         5.88870249774052    6.88413831608196   -0.56784066698173
H         4.06329254293639    6.70742276557888    1.09335596671239
H         3.06744456832274    6.87958596655482    3.32947376803741
H         1.94593551323415    7.27069888891486    1.98614341080216
H         1.69233798606507    7.97930405417795    3.59729167096013
H         6.20862880375905   11.91683944447115    2.99756324695947
H         4.64842203339161   12.66657092652353    3.42554946556749
H         5.28085751830363   12.82664327939761    1.76850490023758
H         7.23749102428137   11.22592153236898   -1.57362084428824
H         7.75735432375325   12.55953077969670   -0.52055871818320
H         8.40514063089669   10.92399784044771   -0.24542597917447

