133
CSD_code = TOQHIR | q = 0 | S = 0 | Stoichiometry = C54H72N2O4W | MND = 5
W        -9.05815565186351    3.32872151024158   17.62906083810700
N        -8.63131156732131    1.64410711027621   18.06367487762562
N        -9.13902111136820    3.18269023978724   15.66866458055035
O        -7.86009216245886    4.87040159237040   17.45073100405549
O        -9.40462275711293    3.93002423378777   19.45900103330547
O        -3.37752048041266    7.05307566968860   19.81238203960396
O       -12.66699801794022    7.87892511386032   21.46708283198248
C       -11.15136491622082    3.36267751068595   17.52685674357287
C        -9.70172724243334    4.33435582926725   15.11766331626229
C       -11.54548899519051    4.47480664053149   16.83875330562615
C       -10.74486047729229    5.00585229022275   15.71547205425677
C       -11.19273627975789    6.30711820232217   15.08047109753900
H       -12.26900175321682    6.43115269886950   15.17009894869218
H       -10.98183406887456    6.29985739872951   14.01328262222657
C       -12.87691724190003    5.14097463563719   17.14429160986322
H       -13.14108388302829    4.91164922923481   18.17690681010080
H       -12.78299378778392    6.22676046219819   17.09412057315677
C       -14.03429221778346    4.69558934884818   16.24313486217748
H       -14.96230442684485    5.11123479626736   16.64604681667287
H       -13.90359760180609    5.10127550024723   15.23658042712352
C       -10.51691099994942    7.54090084658388   15.69020768187969
H       -10.84770495215060    8.42351990513346   15.13446435324491
H       -10.84775406038050    7.66234612798099   16.72429590091540
C       -14.17076206128213    3.18084726264628   16.11474060551435
H       -13.28239287707122    2.79281615046928   15.62091916977847
H       -15.02402377051110    2.98489463484821   15.45964520834073
C        -8.99183682653594    7.47715778538941   15.67009803986677
H        -8.65289185231900    6.67053141912320   16.32223880541714
H        -8.61168242764170    8.41193960596664   16.09028860275741
C        -8.39280853305651    7.26331203558016   14.27533060513836
H        -9.09978946555511    7.58684566159516   13.50800344857892
H        -7.50551067711126    7.89389089608979   14.17508285514765
C       -14.37087283203793    2.43727575690041   17.44007343029236
H       -15.12118744637817    1.65645178169447   17.29078792419434
H       -14.76970342856369    3.11963998408653   18.19350010328825
C        -7.94936767672318    5.82528856012141   14.00285509303450
H        -7.31603808734561    5.49429908342624   14.82795116577157
H        -7.34191868031054    5.82781299542357   13.09232769586712
C       -13.11378751897022    1.75270821207598   17.98131215050329
H       -13.42753424804688    1.07254351797285   18.77793236646176
H       -12.65879056119451    1.14740387182887   17.19541059883099
C        -9.06665140634861    4.78825699082523   13.81285871902767
H        -9.80013388895201    5.17928914462512   13.10610108548528
H        -8.61683295899577    3.90590281956133   13.34892050090635
C       -12.04284141728102    2.68842418135318   18.56556471125942
H       -12.53710501133872    3.41838998471904   19.21882049103972
H       -11.39052857021146    2.07323559898118   19.20350888320517
C        -8.07088599460790    0.55847058400051   18.63177526854833
C        -7.05701516592706    0.71270251496242   19.61677671414617
C        -6.50002763947136   -0.40815565732080   20.20243566708147
H        -5.73985886801947   -0.29082587691011   20.96064379438834
C        -6.90049744796261   -1.68301918386972   19.83983020987773
H        -6.45412449125720   -2.54633062385690   20.31062592140452
C        -7.87713725772081   -1.84212481804465   18.87279455016761
H        -8.18584202942261   -2.83934547453589   18.59389997628686
C        -8.46356081443767   -0.75016052451340   18.26113588956446
C        -8.72316929771505    2.14031525864997   14.79433331250916
C        -7.36641068553244    1.78017046351525   14.69596188326128
C        -6.99087494696496    0.78721453006581   13.80083613065340
H        -5.95001608480214    0.51460416505341   13.71664377670619
C        -7.91958327047237    0.15201404474283   13.00123631057125
H        -7.60582733382615   -0.60196339149314   12.29516261230954
C        -9.25550254620967    0.47797222085030   13.12623905005882
H        -9.98183515273802   -0.03349060664405   12.51379309176358
C        -9.67848695724751    1.44720144688021   14.02316403952299
C        -3.27915268227154    7.21607579928386   21.20409933510647
H        -2.29078746478447    7.63686799925656   21.38308753369748
H        -3.36369585532411    6.25873676393552   21.72977922947019
H        -4.03912913301861    7.90669593241783   21.58526370824664
C        -6.78669867084597    5.41148836456225   18.04826543075925
C        -6.74788209187086    5.59512690640426   19.43234469295791
H        -7.59993753824065    5.30382618572580   20.03141415359958
C        -5.63537882702574    6.13612415947313   20.05243267993961
H        -5.64965266524019    6.25463703978146   21.12498661919655
C        -4.53055053651285    6.51926073980386   19.30272151524801
C        -4.57123439782865    6.36258016908264   17.91841160700123
H        -3.71459516140130    6.67407911080081   17.34145215898760
C        -5.67740609818712    5.82397731978540   17.29969431897772
H        -5.68920078658665    5.71688275322294   16.22544570271886
C        -6.64806254781014    2.10383524397366   20.03553944459698
H        -6.98540779920957    2.80264214215057   19.23445733619580
C        -5.13697440594666    2.26093943989172   20.20997194594280
H        -4.60395868841982    1.82837423742112   19.36700625982198
H        -4.79828570058133    1.76867262135031   21.11885507597526
H        -4.87885238660308    3.31626545269665   20.27871331591499
C        -7.37781767964736    2.47432939832025   21.33121048138476
H        -8.45202823634262    2.47772274364349   21.15502754980975
H        -7.07338208149009    3.46114370498973   21.67410451760025
H        -7.15058469758764    1.74897108520493   22.11071961709430
C        -9.52644789754193   -0.91979745643551   17.20244312977409
H        -9.78990970807494    0.08982749113136   16.84747104655077
C       -10.77547354910264   -1.57346855774025   17.79846032831836
H       -11.15709256119959   -0.96909709664743   18.61786061012962
H       -10.54501911526122   -2.56556251874356   18.17998276011001
H       -11.55630373017254   -1.67108381695045   17.04636455597726
C        -8.99249562018514   -1.72978686644628   16.02001920383477
H        -8.10640180747589   -1.25193106371662   15.60946254947664
H        -9.73951854556828   -1.79551621978002   15.23201541699320
H        -8.73169201115028   -2.73931168897603   16.32887456123020
C       -12.84367277481941    9.10220564154035   20.80009986814696
H       -13.54457080742608    9.67211904902301   21.40824677957373
H       -13.26800928432089    8.95960039762038   19.80010055317682
H       -11.90335083223948    9.65814729634113   20.71834204834321
C       -10.17414184504900    4.90010573690048   19.94015714536251
C       -10.87315058269445    4.74875842106055   21.14767576816580
H       -10.77042667868237    3.82454089045995   21.69669898747707
C       -11.68559221444837    5.75595010616702   21.61622454251643
H       -12.23173435028177    5.64155855252101   22.53941979736392
C       -11.82501272888543    6.95265114677754   20.91122571649996
C       -11.11730886555652    7.12516384554524   19.72869319062692
H       -11.18524556566110    8.04641984700734   19.17010370598631
C       -10.30446652642234    6.11104976599054   19.25233847704250
H        -9.73393392976411    6.25324984111281   18.33931370273276
C        -6.29268909762358    2.46210718980221   15.51412616785398
H        -6.77690025061741    3.19167109098225   16.19243131173878
C        -5.54346712208538    1.45251258666245   16.38690892694195
H        -6.23800668686395    0.92095755199621   17.03243399647322
H        -4.81545237974814    1.97182521316462   17.00623610567753
H        -5.01333821581777    0.72524742561524   15.77633139307820
C        -5.30244516717205    3.19733089830707   14.60434843116660
H        -5.81736666336573    3.89090145711950   13.94435840571748
H        -4.75562522349697    2.48870520792607   13.98639871963992
H        -4.58151701916000    3.74990827080003   15.20312254107244
C       -11.15718403924850    1.71776481897107   14.18144380581575
H       -11.28289954673152    2.33291091305684   15.08050878692663
C       -11.94071265863515    0.41945909195784   14.39315940338905
H       -11.51833733390024   -0.14333552199068   15.21964173467363
H       -11.92411354333461   -0.20389481230860   13.50279613159203
H       -12.98034085763909    0.64583082479736   14.62123209456384
C       -11.72132898539395    2.46581556008206   12.97098660170156
H       -12.78641511227628    2.64399667184348   13.10309674712525
H       -11.58011690218918    1.88115093851567   12.06442774128947
H       -11.22757266873078    3.42356266614232   12.84250749081815

