79
CSD_code = TOQJOA | q = 0 | S = 0 | Stoichiometry = C22H44N6NiO6 | MND = 6
Ni        5.35026184253895    0.97703056832729    4.55608643938353
N         4.35419042528454    1.38939727455287    6.29457115251204
H         3.43123276401732    1.33566286925888    5.84865321874850
N         5.55214241312855    2.91369471556768    4.39278261616476
H         6.48511658487450    3.02850133796947    4.84998461740466
C         4.57895840058714    2.81035793836113    6.60233962219841
H         5.57860358239687    2.91940103567875    7.03518486784148
C         3.54256840654312    3.39960386494841    7.56382961623519
H         3.56470718155491    2.87335932939391    8.51869205865123
H         2.54429192507467    3.28766750805014    7.13319512852958
C         3.83622491747320    4.87702288180868    7.80549999590015
H         3.08859104207215    5.29518399465861    8.48126962170709
H         4.81342769822081    4.97804496567351    8.28193874983123
C         3.83383938182435    5.63810097119465    6.48726208238647
H         4.06419927838345    6.68972167551923    6.66398654544953
H         2.83983110062025    5.58410329889523    6.03781023960736
C         4.85709212726370    5.04924482888062    5.51994077019780
H         5.86272892800890    5.14484131695683    5.93552928769252
H         4.81303146622155    5.61408869924255    4.58908488500513
C         4.56460350542807    3.56467422618778    5.26742451360453
H         3.58000205014627    3.45396756692341    4.79559984488957
C         4.33529781697777    0.46640329291434    7.43882271088758
H         3.51763520431103    0.74931586608268    8.12116241766149
C         3.99887019353132   -0.93702572524484    6.92168728328021
H         3.06962008472881   -0.89097135713493    6.34754675135274
H         3.81883889205036   -1.58811242245070    7.77661832784700
C         5.07802068978301   -1.56754162935876    6.04589170881785
H         6.06113834716267   -1.48544829163112    6.51356113046882
H         4.82647845098651   -2.63017953438332    5.95151303201617
C         5.65031464972997    0.52142486635636    8.22530112086709
H         6.48288077168214    0.34398566396017    7.54684492998190
H         5.76806526379910    1.52229753053090    8.64238067165804
C         5.70267131747449   -0.47211689007426    9.38034004406407
H         4.83280484594269   -0.35854088455357   10.02509534401878
H         6.59356764692898   -0.28892756673360    9.97520778843013
H         5.74190511940205   -1.49902640549179    9.02831829684682
N         2.45723590865989    0.28868592586064    3.12005563804209
O         3.14947240351407    1.18290906038787    3.65994526871098
O         2.74877263765708   -0.89464178178735    3.34324389792559
O         1.53082073712685    0.59197649383529    2.40534050611043
N         6.34622081144370    0.56459226849734    2.81752226274298
H         7.26918973246674    0.61826314551387    3.26343273311213
N         5.14836585293649   -0.95967323613825    4.71934683910491
H         4.21531602359125   -1.07456066151754    4.26234689428883
C         6.12141498653301   -0.85635096122722    2.50970428050942
H         5.12177618140633   -0.96538843666330    2.07683797443920
C         7.15781656853712   -1.44559344390424    1.54821842700340
H         7.13566245981826   -0.91936073507794    0.59334867990201
H         8.15608595336030   -1.33362542842001    1.97885581640935
C         6.86423463598946   -2.92303405675995    1.30656740684036
H         7.61195845208258   -3.34117829403458    0.63088707220239
H         5.88709579723735   -3.02410455827264    0.83001163757411
C         6.86651870552111   -3.68414704244973    2.62478884402566
H         6.63607529432622   -4.73574914450629    2.44803499496732
H         7.86052577004381   -3.63024184513753    3.07425637323504
C         5.84329998899547   -3.09523165466588    3.59211386683419
H         4.83764517162589   -3.19081761457708    3.17656238149458
H         5.88736676809504   -3.66005431130341    4.52298284586618
C         6.13582354348453   -1.61066634070679    3.84461770337834
H         7.12045487824553   -1.49995411785839    4.31637380367677
C         6.36513232291840    1.48762564722144    1.67329936193279
H         7.18271871378459    1.20467315482176    0.99089083878914
C         6.70177622729441    2.89098032741676    2.19049026375284
H         7.63100694046664    2.84473791298118    2.76464376390792
H         6.88193383287119    3.54209015261526    1.33560039400374
C         5.62269383164890    3.52162542089153    3.06627763219828
H         4.63958277597039    3.43974088143333    2.59853434480089
H         5.87443082903380    4.58421295076325    3.16074385380612
C         5.05005972361532    1.43283031932916    0.88690889091671
H         4.21756412750493    1.61044669456685    1.56539552969921
H         4.93210731760245    0.43196303287275    0.46989001991092
C         4.99776823631303    2.42632860078690   -0.26816719601041
H         5.86755349550209    2.31257923770562   -0.91299916879547
H         4.10677362935241    2.24328875225048   -0.86293620918179
H         4.95875800335933    3.45325445151359    0.08383574523079
N         8.24378388458850    1.66522919823863    5.99160517731098
O         7.55090168594297    0.77117465799517    5.45254430547181
O         7.95165941273420    2.84853294966703    5.76915479395531
O         9.17079143064408    1.36182504700469    6.70553407776422

