45
CSD_code = TOQJIS | q = 1 | S = 0 | Stoichiometry = C18H22IPtS3(1+) | MND = 4
Pt        5.47715731227761    1.31058335782588    0.78498627433785
I         7.98984199735472    1.15968970405464    1.38601676355181
S         5.27038064462389   -0.36770926911971    2.44322157951779
S         3.19441756367621    1.54153397186182    0.29201229541912
S         6.07149958123896    2.90734178500773   -0.86694508468246
C         3.60688673563917   -1.12044164720922    2.64342309045126
C         2.40452014615163   -0.26359226768416    2.28389795379533
C         2.29679242266366    0.02534697953497    0.79138206165279
C         3.08441698447123    1.31312620435072   -1.52172347448506
C         3.60669115698037    2.52798126975262   -2.27367680083723
C         5.12200992431340    2.57501554722996   -2.39512278922842
C         5.29906675375897    0.70231573334436    3.87924847641042
C         4.68374638845890    1.94484156714426    3.85910104690786
C         4.74026956465223    2.74362116233647    4.98811923596118
C         5.41027876942576    2.30428858793280    6.11855913273860
C         6.02735670648666    1.06392568016945    6.12546889028056
C         5.97456349765821    0.25525029466201    5.00301545119876
C         5.31356344828493    4.37499577115427   -0.18993649290490
C         4.81536270428563    5.38978794700178   -0.99247165398773
C         4.29606214812457    6.52772896803084   -0.39704591644660
C         4.29560675526385    6.66181068574890    0.98127782790343
C         4.82970090879297    5.65875388851953    1.77494872315718
C         5.34144927654097    4.51455098782770    1.19226605457670
H         3.56250076303232   -1.41637068879316    3.69128659216434
H         3.63682839531226   -2.02038201244556    2.02781087660610
H         1.51129518044142   -0.81512439402066    2.58850542654177
H         2.41413334306969    0.66976582319240    2.85210362893948
H         1.25828662112377    0.22104679710390    0.52033832326989
H         2.67060077874201   -0.81096103265642    0.19904438736118
H         3.62403420456329    0.40646154368089   -1.80051660901179
H         2.02172920747591    1.17850848617440   -1.72751711986622
H         3.20097294804587    2.49602592507410   -3.28841501746766
H         3.23247601770703    3.43917282092490   -1.79876498697272
H         5.51883852092514    1.62203110674300   -2.74983679887080
H         5.42533892697318    3.34771863258489   -3.10162000308306
H         4.16136535976309    2.29076714119420    2.97299064771503
H         4.26240845062957    3.71102428452166    4.98082520295043
H         5.45723657238533    2.93389085309480    6.99300001605800
H         6.55729217619528    0.72550663997170    7.00148140320624
H         6.46481174412237   -0.70548766538974    4.99029346958914
H         4.83960095865636    5.31458487078322   -2.06831882322092
H         3.90248920442496    7.31635765898181   -1.01915186383887
H         3.89344011541779    7.55374761431384    1.43482220946609
H         4.85762277184832    5.77015770436218    2.84743924839772
H         5.79485634801986    3.74051098111306    1.80307714479357

