42
CSD_code = TOQKEQ | q = 0 | S = 0 | Stoichiometry = C22H15Cl2NOPt | MND = 5
Pt       -0.35311080125669    3.37964600163324    4.25241760468874
Cl        0.63049087309948    2.52066978985941    6.07285466767570
Cl       -0.76077331185428    1.26770793926827    3.54933453083037
O        -3.22411118249712    6.07335226037066    3.34120304495699
N        -0.19992085322791    5.29682808013246    4.96217554159262
C        -1.15529991084171    6.12046141589171    4.49705514219531
C        -1.27238674802571    7.42971847121204    4.94348625570069
C        -0.36962163864314    7.90463251024108    5.88115979037101
C         0.61488916674145    7.04512662056881    6.34746507951792
C         0.66348432345665    5.74640951848586    5.86697092438070
C        -2.14972261892478    5.54369250322802    3.52886950664701
C        -1.70900318784198    4.30298142077741    2.86218386525643
C        -0.43690103956225    4.25728552728990    2.26886417394150
C        -0.06418665320696    3.31900596099606    1.19698526185938
C        -0.92103059710012    3.07455377987218    0.10644950664419
C        -2.09506711591755    3.83137823816988   -0.14796162617371
C        -2.90548301431263    3.54714471740199   -1.20546528517176
C        -2.59810459917968    2.49229148376965   -2.08768758060127
C        -1.45544311257127    1.77622087628167   -1.91195396882564
C        -0.57569008753674    2.05239688771003   -0.83374988216658
C         0.60963457225922    1.34329103580363   -0.67703154006496
C         1.50073897625460    1.63092710096911    0.35172876525114
C         2.70987395836342    0.90499765815417    0.50078993009279
C         3.55825987945450    1.15981644833682    1.53305095270830
C         3.24763272615996    2.17078362389814    2.46383324188732
C         2.09658033009665    2.89160254248307    2.35195513053325
C         1.17375711866092    2.64853498575247    1.29897525736922
H        -2.07250810650782    8.03870506186646    4.55235639222622
H        -0.43697728566301    8.91797283939796    6.24545756297454
H         1.33461309804960    7.36910164726778    7.08174556874108
H         1.39535076591238    5.03194601070977    6.22172705221063
H        -2.49464070124887    3.64288884556300    2.50236212540712
H         0.18849664236966    5.15417814484016    2.33120862236098
H        -2.33802133096982    4.66706314191856    0.48998958752072
H        -3.79203724229149    4.13868769795027   -1.37957024309333
H        -3.26482368378564    2.27605046673627   -2.90891947308291
H        -1.18586965012976    0.98609795279861   -2.59769936821741
H         0.84365193834224    0.54754162960583   -1.37036461067855
H         2.93331778023746    0.13434838587574   -0.22296880080994
H         4.46994038701486    0.59367179132206    1.65056591250647
H         3.93103285899469    2.36793902841480    3.27622087081217
H         1.90248907764732    3.67684995718812    3.07963051003288

