94
CSD_code = TOQMAO | q = 0 | S = 0 | Stoichiometry = C36H52FeP4Si | MND = 6
Fe        3.18683450564977    0.36604035076718    1.15976073553587
Si       -0.23194292589104    0.45431302650026   -2.41676000604193
P         4.70916918587835    0.05206017246481    2.65013456486770
P         2.89771391289170    2.50408011893310    1.50471120255362
P         1.38821659829674   -0.26436785879241    2.23968350842380
P         3.69844659210927   -1.32362251441641   -0.14054326791525
C         4.67417829667440    1.05844202972020    0.02925372062168
C         4.50841354205339    1.73823259299487   -1.15891241055204
H         3.50889302605873    1.92461206453334   -1.52548120273594
C         5.59632390331604    2.16321961445465   -1.93469806334112
H         5.40689358232707    2.70074450136149   -2.85480843296712
C         6.88219245898913    1.88219850546030   -1.55937104002993
H         7.72130021025141    2.17763383356347   -2.17393456223687
C         7.12129215778798    1.18864693581783   -0.35703576331577
C         8.41426958647969    0.83087150811259    0.07885712463497
H         9.26068183117799    1.09661774983901   -0.54007895608211
C         8.60282209332589    0.15494326852490    1.25420849799189
H         9.59885724186150   -0.12823990548166    1.56496000165996
C         7.51578258290628   -0.15443685962936    2.08359960761502
H         7.69094873049160   -0.65975372571097    3.02222978704007
C         6.24609887314099    0.19139583505399    1.69151232012247
C         6.01029026729481    0.82483842266220    0.44742009375494
C         5.15274333145955    1.15996200353755    4.04831772344832
C         4.49129360346079    1.01963236951230    5.26743432382038
H         3.78218554525174    0.21512621628675    5.39657184217633
C         4.75458292037072    1.87633185817870    6.31918473025076
H         4.23482313475757    1.75012623169159    7.25850925360211
C         5.68624795130415    2.89150214133720    6.17254780820886
H         5.89093937771394    3.56376343485985    6.99283795282829
C         6.36437145733766    3.02839967136466    4.97353028954637
H         7.10692994553597    3.80513138802473    4.85766740562399
C         6.10206085279023    2.16999024786184    3.92024952408552
H         6.66150618805139    2.27096666645350    3.00042605820096
C         4.86647674018533   -1.53057999099407    3.55281837372137
C         3.99834747492025   -2.55186419386619    3.18780676531133
H         3.27682578832041   -2.33881517837085    2.40754305229184
C         4.05427826582497   -3.78698373390912    3.80531132536497
H         3.37232062188606   -4.57395567642313    3.51441276352598
C         4.98921910653266   -4.01165728221457    4.80264150335835
H         5.04101063931617   -4.97435274471770    5.28999839799147
C         5.85203578253804   -2.99588070279315    5.18197125252699
H         6.57444973751658   -3.16894578529030    5.96697168853282
C         5.79136548758080   -1.75770824616650    4.56782950627216
H         6.44994344650071   -0.96445768673965    4.89282785114761
C         4.29924896355279    3.67816953028720    1.31359720099763
H         4.60195500788383    3.73631177836183    0.27131278439385
H         5.14453971813494    3.33787320359923    1.90598627247268
H         3.98791270623574    4.66386210109675    1.66182412610074
C         2.38564258764630    3.13030412912353    3.16775035154244
H         3.22823347202729    2.99919706428796    3.84669842151526
H         1.53522157513177    2.58504142379753    3.56677853933591
H         2.13689158043048    4.19022588142145    3.10709521567735
C         1.71756123183550    3.38829548773824    0.41442671016651
H         1.59109898268730    4.41572078523621    0.75740613566540
H         0.76095722091236    2.87729308273590    0.37013762603341
H         2.14067102585399    3.38761383859943   -0.58784267200812
C         1.43252968575234   -0.36672989727484    4.07831425310818
H         0.44111212967035   -0.58392844027341    4.47716591046818
H         1.79065765765781    0.57601459756065    4.48513865055433
H         2.12006047941763   -1.16064321629253    4.36861452930739
C        -0.08836630433955    0.81339498173668    2.04323462391301
H        -0.43606976619702    0.70478314802567    1.01715184407893
H         0.15675813866477    1.85560139603775    2.21976050059231
H        -0.87026699041428    0.50132376963932    2.73662573141845
C         0.46183236427910   -1.82764735423019    1.94987146871261
H        -0.44411114408567   -1.80889771396767    2.55694393502193
H         1.04796847620409   -2.70048756007751    2.22628470277367
H         0.18784282919733   -1.88086054765513    0.89918751350370
C         5.23929230849726   -2.31471389629807    0.11720720611688
H         5.32501988597941   -2.66862531923208    1.14243595215954
H         6.10507947646168   -1.69654687572641   -0.11332428403599
H         5.22679308353899   -3.16995562596480   -0.55938939512673
C         3.98015779668444   -1.03943070142783   -1.93399477874231
H         3.98871870113645   -2.00582513844010   -2.43889790463254
H         4.93782184035479   -0.54917408190486   -2.09203155692643
H         3.18228731107851   -0.42208980935770   -2.33762697462852
C         2.52711230527963   -2.72870288265174   -0.35485592129791
H         2.93049796972647   -3.42703998625601   -1.08824926364177
H         1.58696610103524   -2.32210922768455   -0.72184402036664
H         2.36406217369017   -3.26115222731991    0.57774220524985
C         1.93056338062023    0.41468815048375   -0.25390135264106
C         1.06208535082085    0.41721296667723   -1.11097791690763
C         0.56842278515321    0.62582152221846   -4.14083882549954
H         1.18822846483498    1.51610262740383   -4.19533495748940
H        -0.17885450268749    0.69656324745364   -4.92641811471450
H         1.20237617249474   -0.22733288399319   -4.36534301285257
C        -1.24742596943435   -1.16476203577371   -2.35857005479245
H        -0.61680400417728   -2.03033011083279   -2.54233146378694
H        -2.03628378457686   -1.17005865903222   -3.10552702299070
H        -1.71552454559820   -1.30089268832182   -1.38732833258681
C        -1.41159340495990    1.92790794418297   -2.11961465279804
H        -1.91554780108734    1.84394439138857   -1.16055708399142
H        -2.17781852288038    1.98669267581360   -2.88762833700229
H        -0.86984785237233    2.86927648077255   -2.12278136288708

