72
CSD_code = TOQMOC | q = 0 | S = 0 | Stoichiometry = C30H37FeOP3 | MND = 6
Fe        1.83404692443086    6.90331793232942    4.41453290959296
P         1.77380830070075    5.54235049702318    2.73828820407535
P         1.38476041361951    8.74295683773893    5.45410943248354
P         3.96437145783829    7.02843239209944    4.57079974474394
O         1.39048464351057    5.02585209860570    6.56100254933254
C         1.63103060538681    5.77354315394696    5.71598281532032
C         2.03164265309727    8.21684283432047    2.89528509452592
C         1.00922016921797    8.73978435262971    2.13177264561012
H        -0.01099550261322    8.44584774010935    2.33437242650667
C         1.21517418066057    9.65087131554147    1.08474659207809
H         0.36064763145011   10.01743989843230    0.53022809649722
C         2.47330703044372   10.07270391484377    0.76523535392578
H         2.64361253847500   10.77420862481248   -0.03965803361180
C         3.57438854538249    9.58531999404510    1.49760744618375
C         4.89334198613358    9.98855797569838    1.20669363086883
H         5.05157213532728   10.69030497842700    0.39889524694058
C         5.95498731686111    9.50872299917053    1.92297310812443
H         6.96176888741323    9.82574602575820    1.68891434709622
C         5.74852515688750    8.60010013457559    2.96806441003578
H         6.60360646465282    8.23369371540262    3.51996716149810
C         4.47178194094793    8.18655422923680    3.27796166736592
C         3.34703339779572    8.66405935105911    2.55441257567067
C         1.83751050224992    3.75711764641959    3.16588123422358
H         1.71989254862613    3.13201323556318    2.28043607847276
H         1.04135916672425    3.54108807920265    3.87727826833469
H         2.79507847507857    3.54619262630605    3.64149961991211
C         0.35487056469002    5.51865290178748    1.57481563044255
H         0.54422676830781    4.76475183782878    0.80963519747544
H         0.26568093683127    6.49617521408460    1.10585129700738
H        -0.56853422717101    5.28194541518330    2.09624730472948
C         3.09759680466267    5.59827103372103    1.46816162695207
H         2.98568052177265    4.75564233980730    0.78474406129907
H         4.07582322943468    5.55019900235609    1.94178689039945
H         3.01793877739573    6.53216522448577    0.91296747231507
C         1.22597667177200    8.60250279687339    7.27872120227158
H         0.91955573906645    9.54880284443137    7.72507186477928
H         2.18771179017393    8.29578305395960    7.68936834904789
H         0.48968546908900    7.83274886667165    7.50640909664084
C         2.55280633637872   10.15557009812750    5.36040963864805
H         2.22772843391541   10.94537070257435    6.03892161182295
H         2.57058441263847   10.53553633182444    4.33951178859621
H         3.55495464698028    9.83381235097006    5.63637911869614
C        -0.14108392948974    9.69703000342788    5.09406137894229
H        -0.16356331202890   10.57579459550059    5.74000980297823
H        -1.02661955239538    9.09323126221699    5.27264831425225
H        -0.12228348661230   10.01301751689029    4.05309119036307
C         4.76497052989715    7.61133593327858    6.11949030049544
C         5.66287788626113    8.67101460286389    6.19999409367717
H         5.92841316899018    9.23131807247038    5.31576364832493
C         6.20743014596562    9.03691368653590    7.41926208062380
H         6.90240712021882    9.86332892777611    7.46549202161742
C         5.86492704167229    8.35482209040715    8.57346326788182
H         6.29528180850750    8.64149954517262    9.52168914611797
C         4.95560836188471    7.31180585227335    8.50713448537130
H         4.66781061414339    6.78547243719351    9.40595993217828
C         4.40632318109558    6.94950868758801    7.29199688868837
H         3.67418998488809    6.15756818881486    7.25000122324876
C         5.01615676481695    5.53620294133675    4.35499633589928
C         6.04598401088148    5.41638580943871    3.42727414096823
H         6.27533756207198    6.23068686795360    2.75579415661420
C         6.77454805811951    4.24245356769699    3.33667408376663
H         7.57030366211416    4.16453346772301    2.60947265660571
C         6.48758675040679    3.17298614773764    4.16642883684857
H         7.06084538197812    2.26045337009628    4.09426756914862
C         5.45139290934488    3.27524388392599    5.08026486639379
H         5.20825179855588    2.43900177192530    5.72003425872642
C         4.71908458544215    4.44382705526612    5.16746735205222
H         3.89248425064258    4.50744060228754    5.85857958439569
C        -0.21903584608505    6.60263597435103    4.47627060842658
H        -0.48617252703651    5.55261126578878    4.33089562930918
H        -0.75410479566665    7.17168604004526    3.71877203463308
H        -0.64839657481694    6.87913723402295    5.44286533451603

