68
CSD_code = TOQNIW | q = 0 | S = 0 | Stoichiometry = C26H36N2NiO2S | MND = 4
Ni       24.74732403590881    5.35777844827488    4.04245131078267
C        23.86583492248403    3.62802196178683    6.15900738009092
N        24.61254243486455    3.79339930764546    5.11698588717778
C        25.47121474397840    2.71114150798795    4.67138393305525
C        26.59574285890334    3.32264244151602    3.83108741411777
N        26.05289639431339    4.37944323738075    2.95804073288437
C        25.34655356783799    3.76551932061780    1.82736546571760
C        27.13988472146915    5.30081641635391    2.51467966383181
C        26.52661929871283    6.51028355770649    1.82304657166648
S        25.13216560305199    7.13843089289551    2.83897830314205
C        22.96638202345975    4.58969086398772    6.68129433700983
C        22.22138363265641    4.25779700664731    7.83150946783252
C        21.34063751776797    5.14137619595885    8.39015968118315
C        20.51176054578176    4.83852582135004    9.62869648357683
C        19.02124715045576    4.93826149653332    9.27544920526499
C        20.85510311163023    5.85458371927624   10.72704191803133
C        20.77747887751548    3.43484079150273   10.18006999657856
C        21.20716751427510    6.40131715953843    7.77189121982564
C        21.90021672794628    6.79193897772629    6.65636656962836
C        21.72848838905496    8.16930711580924    6.02932344156997
C        23.07597731449748    8.90408654458941    6.04673136434329
C        21.24509432965017    8.01369535011354    4.58103004594281
C        20.70777134165843    9.03274756697258    6.77895538696655
C        22.82437237034611    5.86828320878881    6.06123058937010
O        23.47489245786833    6.22430359066317    5.01206192238806
C        28.22252951033492    4.61846041981911    1.70512924378777
C        28.11142308360095    4.38136961262978    0.34140939238775
C        29.12762435224347    3.76899833171334   -0.37180569385254
C        30.29063407057069    3.39098140807030    0.27315035785298
C        30.43087012036045    3.62792046289677    1.62782283190053
C        29.40797017036149    4.23353076003294    2.34577052492406
O        29.53495923351901    4.46353282172730    3.68493519614514
H        23.92131323963702    2.67507043481646    6.69418590506958
H        24.88329983787229    2.00075736795893    4.07427159420241
H        25.89199942084202    2.15836009584478    5.52225185974365
H        27.32360824396141    3.78241076097819    4.50411215935284
H        27.10568906851874    2.55126836407921    3.23775088742864
H        24.95030859070141    4.53660298861988    1.16985758128368
H        24.50462521903530    3.17765943059808    2.19306600874171
H        26.01517547012019    3.10764079826156    1.25971759735319
H        27.60188649302602    5.66833830101894    3.44019799014836
H        26.15280795709931    6.29071117856395    0.82355363915890
H        27.26351639257743    7.31019414249664    1.74485735920990
H        22.37642176546868    3.27580811735234    8.25086211039305
H        18.77648296124404    4.23681748135117    8.48042597039126
H        18.75962267790985    5.93745303069761    8.93888686013624
H        18.41177949824688    4.70171528944445   10.14547911717061
H        21.91560193066446    5.80490266442246   10.96531086400434
H        20.28692991881635    5.63892929980454   11.62980866323361
H        20.62451164307162    6.86922296591183   10.41511630730394
H        20.52293035166642    2.67298275153201    9.44676635059846
H        20.16491375784479    3.26879310962327   11.06414243279879
H        21.82018953787880    3.31985855657272   10.46715146872934
H        20.51404513064388    7.09587653962240    8.21488680896284
H        23.80357147481019    8.38108093301569    5.43336851440548
H        23.45538409809582    8.97508012925009    7.06462988234330
H        22.95492908045652    9.90912916165095    5.64922335248616
H        20.31776456110423    7.44414516922203    4.54980419364275
H        21.99464757966316    7.50399876293634    3.98339282764422
H        21.06732098372601    8.99313436654551    4.14293320943383
H        19.72050603804211    8.57517174464227    6.77159917297133
H        20.63056535619949    9.99935641417243    6.28544263169099
H        21.01666726299374    9.20800341686997    7.80746759902100
H        27.22095838703020    4.68956876483435   -0.18332775886445
H        29.01166974822426    3.59472655475588   -1.43030354552052
H        31.09158269941684    2.91771623383472   -0.27389084589446
H        31.34169254468215    3.34424111409359    2.13916181551521
H        30.42501865162789    4.22494724609144    3.97048927057867

