115
CSD_code = TOQVOL | q = 0 | S = 0 | Stoichiometry = C33H72N9Y | MND = 6
Y         9.34909637019915    3.22531589703369    3.97555859390006
N         9.74193538345206    1.14892027456680    5.02166425374529
N         9.34909893116590   -0.96746474127154    3.97555343288133
N         7.31198993234158    3.89843712047008    4.95216987436980
N         7.79378303868144    4.63325912345903    2.89729627093200
N         5.72150882209084    5.32567182569871    3.87857482169914
C         9.34909965390791    0.43522294155627    3.97555539706254
C         6.93595916106585    4.62433726590166    3.90813890809931
C         6.36270325470789    3.46075830836336    5.95990909132572
H         5.37877097873857    3.92825019420482    5.80777608950106
C        10.55028147786321    0.57250781768037    6.08107079006607
H        10.64728724462470   -0.51627230353556    5.95909584962680
C         6.87990993926183    3.82003174918713    7.35583256091817
H         6.99981352824457    4.89629445787305    7.46182889080257
H         7.84772300546579    3.34643208026104    7.50807739148342
H         6.18901076625851    3.47141595523727    8.12069121393097
C         8.57351147281146   -1.70134274111760    4.94556115994733
H         8.37044582542389   -1.04431894348514    5.79256603160313
H         9.14717496795372   -2.56337474651964    5.30723817104969
C        11.95383263730376    1.18960990018350    6.02248670346419
H        12.46420926345155    0.87134296281867    5.11598190114704
H        12.54646908862080    0.88356450920516    6.88306804497199
H        11.86618814660988    2.27618093464581    6.00480733597668
C         7.73858518356962    4.98203970563087    0.47956953887321
H         6.86659299142723    4.34242930658149    0.35923413307311
H         8.63345691995022    4.37156769603848    0.37631856756410
H         7.72808409809686    5.73376410206863   -0.30700598730557
C         9.91661932753049    0.87125188733801    7.44289880432511
H         8.92058374235619    0.43876907622610    7.51240702589453
H         9.83624388235797    1.94926924093972    7.56764103957245
H        10.52779143379096    0.46485895456085    8.24614310197722
C         8.98124511579363    6.54640744501475    1.98811719679256
H         8.92781265228196    7.12594834816090    2.90726211921088
H         9.04880132843641    7.23296179616173    1.14576077232457
H         9.87454858567575    5.92265716443175    2.02598916665918
C         6.19389207832708    1.93959908560884    5.85134393432175
H         5.70197747422992    1.68468649856949    4.91508399033125
H         5.59468686260397    1.55763399468810    6.67628670685023
H         7.17719085562024    1.46883791909512    5.86319613591865
C         7.74481042072161    5.64709114950373    1.85917801084871
H         6.84880517664635    6.27686030813386    1.96026459664026
C         4.74363259315220    5.05988721195088    2.85186158280257
H         5.24518854348271    4.56779842483097    2.01728690795738
H         4.31415354659120    6.00204755282069    2.48957955347476
C         5.44195963585805    6.34764301639166    4.85758345955278
H         6.06360069462611    6.16375084730107    5.73520317697655
H         4.38994831105133    6.29141731164705    5.16210406950817
C         7.23452132697310   -2.18868449703012    4.37932406350902
H         6.68014078848155   -2.72350137533221    5.14679005807022
H         7.38903325191539   -2.85813342998792    3.53626654635651
H         6.64211048306384   -1.34075231898904    4.04538442445449
C         5.74255701196089    7.75903724562069    4.33911295283580
H         5.52572403971597    8.49192786921894    5.11255798762161
H         5.13686595941175    7.99023603439564    3.46588140966058
H         6.79142355811606    7.83828214299022    4.06523670129770
C         3.61392863529000    4.14712356852437    3.34342809256418
H         2.90914172692360    3.96178008882714    2.53641961593181
H         3.07717507986109    4.60395557715485    4.17161488431904
H         4.02313043383101    3.19703424848448    3.67707651944998
N         8.95626102481662    1.14892046930372    2.92944897220738
N        11.38620461920215    3.89843604315515    2.99894604370953
N        10.90440796290340    4.63325796612450    5.05381886487244
N        12.97668251545197    5.32567289067644    4.07254420707266
C        11.76223305651827    4.62433729453437    4.04297570128081
C        12.33549094676341    3.46075752461921    1.99120646807434
H        13.31942339678863    3.92824929642278    2.14333852053984
C         8.14791658262127    0.57250708940239    1.87004179058137
H         8.05091849116217   -0.51627415521017    1.99201221619100
C        11.81828351488612    3.82003286040667    0.59528392266114
H        11.69837797598306    4.89629563836483    0.48928926634748
H        10.85047137210798    3.34643154477119    0.44303847425050
H        12.50918335340444    3.47141970707073   -0.16957540003867
C        10.12469734695797   -1.70134061523486    3.00555327581422
H        10.32775541854192   -1.04432130864878    2.15854311120798
H         9.55104336262501   -2.56338176770810    2.64388305616990
C         6.74436038619272    1.18959721172993    1.92863154526147
H         6.23398663724928    0.87131816241643    2.83513383961758
H         6.15172553652960    0.88355551095475    1.06804766682924
H         6.83199731075270    2.27616868429734    1.94632075015030
C        10.95960059362527    4.98204236275752    7.47154549397967
H        11.83159601905134    4.34243770191906    7.59188691345240
H        10.06473211573313    4.37156463702375    7.57479165193599
H        10.97009194328514    5.73376771944381    8.25812020265438
C         8.78157504114911    0.87125996794335    0.50821419810334
H         9.77761517307797    0.43878754979224    0.43870452195598
H         8.86193906459955    1.94927835532967    0.38347418967038
H         8.17040656310994    0.46486224827998   -0.29503052366671
C         9.71694522748752    6.54640752538629    5.96299169325231
H         9.77037730838548    7.12594235979729    5.04384299413728
H         9.64939136549990    7.23296723004175    6.80534380898882
H         8.82364075997103    5.92265827602505    5.92512518457556
C        12.50430410031902    1.93959842490328    2.09976980281998
H        12.99622375738517    1.68468566256730    3.03602711815305
H        13.10350488926315    1.55763293596472    1.27482380560315
H        11.52100516137883    1.46883756896329    2.08792308174254
C        10.95337955945427    5.64709154824509    6.09193583974425
H        11.84938556040963    6.27685980217679    5.99084929873400
C        13.95455925662328    5.05988002529015    5.09925507244261
H        13.45300035551319    4.56780077977940    5.93383372051921
H        14.38404985314101    6.00203715108012    5.46153125661113
C        13.25623959673970    6.34763783992574    3.09353160711079
H        12.63459138710238    6.16375100887928    2.21591597656828
H        14.30824885438713    6.29139956005236    2.78900492731323
C        11.46369352209116   -2.18866243075156    3.57179356980756
H        12.01807810234956   -2.72348008403581    2.80433106575681
H        11.30919033708113   -2.85810598003374    4.41485699593865
H        12.05609614995434   -1.34072111409269    3.90572457813909
C        12.95566058635574    7.75903623269126    3.61200105090510
H        13.17249749415401    8.49192215869699    2.83855265095284
H        13.56135945286069    7.99023043014565    4.48522835582976
H        11.90679646397289    7.83829388955241    3.88588338874918
C        15.08425181188223    4.14710193887437    4.60768941845640
H        15.78903985748750    3.96175390876036    5.41469586753532
H        15.62100728479210    4.60392399535954    3.77949834142079
H        14.67503797886578    3.19701572582072    4.27404694857083

