97
CSD_code = TOQVAX | q = 0 | S = 0 | Stoichiometry = C27H60N9Y | MND = 6
C         1.81380177239982   -1.79587894848106    4.23692716725497
C         1.11669645865928    2.47512734600975    2.08465052325137
C         4.29788075694753    2.08414261533484    5.70628682164022
C        -0.48896281120234   -1.10588735167020    4.61857286676551
H        -0.71696374411377   -2.17348989447508    4.49932749569681
C        -1.19425761794318   -0.34641380616505    3.48774172033468
H        -0.90086826578121   -0.75646779806455    2.52357113745388
H        -0.89540391874060    0.70124233379487    3.52246340052339
H        -2.27583953856380   -0.42303994768794    3.58838406592163
C        -1.02302595601789   -0.63041932016346    5.97306629073687
H        -0.56672536185199   -1.18946997196637    6.78696744629908
H        -2.10208316545190   -0.75954346130643    6.02553319620613
H        -0.78469549250585    0.42409974087744    6.09791375165295
C         4.14604152617751   -2.23748221013018    3.76605630282126
H         3.85393786341826   -3.27237986072397    3.99432303494539
C         4.77792077306239   -2.18779880511430    2.37294586124770
H         4.07707350808749   -2.53807863851367    1.61830099641928
H         5.66814555087556   -2.81206293171607    2.33525961985077
H         5.05407720818502   -1.16064037778678    2.14207447668130
C         5.16067638546307   -1.77097595447548    4.81666654523988
H         4.76368664464841   -1.93866084397358    5.81540230218895
H         5.34082146554239   -0.70319480212988    4.68870467085403
H         6.09854580886638   -2.31452489547237    4.71669849024449
C         0.99497286926802   -3.70950255389554    5.58322998616979
H         1.09879569146894   -2.98156537351464    6.38381665320096
H         1.52891687470213   -4.62255634623679    5.87064004226930
H        -0.06713782126830   -3.96715037567325    5.46771637702746
C         1.35266143442417   -3.95751228608112    3.19091590311311
H         1.85842539241316   -3.49079217038692    2.34920650034824
H         0.27935891528363   -4.03007504093252    2.95534817837537
H         1.74204212907177   -4.97111897879614    3.32441246099631
C         0.35991172037212    3.86531940730360    3.93312487760611
H         0.03396461873492    4.55397007249570    3.14218454354231
C        -0.83718335338574    3.53084923581463    4.82802761884011
H        -1.63534099137616    3.06904206579062    4.25100365899397
H        -1.22596711635903    4.43115886031549    5.29922447654033
H        -0.51811598717295    2.83437849944494    5.60101432801132
C         1.44084903738705    4.57626790104093    4.75747488588237
H         2.24499546701420    4.91266602852093    4.10624814305771
H         1.85424303981467    3.87502161655384    5.48241462896268
H         1.02466181250390    5.43813702141594    5.27692104594761
C         2.05206452698536    0.98914369393448    0.41831777774384
H         1.41051413052801    1.56777438549743   -0.26136195703518
C         3.49630860762900    1.04051569620133   -0.08576759168922
H         3.85406832306759    2.06692617569827   -0.12954151744630
H         3.56916417287681    0.60559502615193   -1.08032832000239
H         4.13267173613461    0.47869247339368    0.59539860897344
C         1.55803511148946   -0.46227745949960    0.43981694363029
H         0.49357446577656   -0.48814698413624    0.66228025026328
H         2.08964525856349   -1.00832151886077    1.21967498694512
H         1.72649335573189   -0.94241149103930   -0.52257353466956
C        -0.97399356018854    3.40061025118869    1.12476084241265
H        -1.41479155869710    2.69271626847078    1.82199014974383
H        -1.39908315477178    3.22125716190809    0.13028150296942
H        -1.24991734172655    4.42099594513189    1.42572605290154
C         1.18729284994453    4.18292264782065    0.33158493794225
H         2.24388027841789    3.92730155095148    0.33710307829619
H         1.06956589797025    5.18613607534982    0.77038273313738
H         0.83355509125088    4.21975477436395   -0.70339386929192
C         5.56168845813965    2.66504494837779    3.72583411577337
H         6.18505112274669    3.20819810107495    4.45031181042649
C         6.43898902167864    1.68981672992185    2.93728484211005
H         6.91825708959632    0.97602435409702    3.60374433565453
H         7.21172343194090    2.22715087183079    2.39161670193873
H         5.81869103441169    1.14329106875495    2.22934653193490
C         4.92164055808099    3.68011483205659    2.77144002103089
H         4.41440374434239    4.45568594656375    3.34099833783238
H         4.18694309293056    3.16940968855733    2.14820464762169
H         5.67605284143719    4.14608581270131    2.13993468909691
C         2.89233515411701    1.32723612751181    7.54312961365104
H         3.74289324758339    1.61829358056146    8.17388512786286
C         2.69354621924895   -0.18649658816150    7.69281241123627
H         3.61868472536032   -0.70886896032654    7.45792120634685
H         1.92453627188233   -0.51514602886962    6.99365249743057
H         2.39603998532493   -0.43735360315985    8.70986530555791
C         1.63937447398311    2.06453825372615    8.02499164731977
H         1.77851372197560    3.14191152793101    7.96874208746678
H         1.41044226634663    1.79737535116626    9.05454328795445
H         0.79932521108331    1.78801355390734    7.39075158101890
C         6.45442935781367    1.99631036073704    6.85858501768331
H         6.66693082988583    1.25863707082126    6.08878913738197
H         6.34159698568109    1.47271950219604    7.82064742544257
H         7.30313495958594    2.68164063823336    6.94073804250804
C         4.88477461558789    3.76225593934649    7.43377197606260
H         3.90457141619020    4.14535113709067    7.16168092094829
H         5.60978891029736    4.58187998462711    7.36915510150067
H         4.85981334159294    3.42124098651526    8.47827333556270
N         0.93641959798612   -0.84870649435985    4.52754054881216
N         2.98991518234961   -1.35928587104707    3.81424281467643
N         1.59888048898120   -3.18568262533602    4.38342746967654
N         0.92590574329076    2.64713321535798    3.38331805523951
N         1.98190340162970    1.52437533592772    1.76702455170055
N         0.44926035757403    3.18243895309250    1.06106071597542
N         4.50538995520670    1.93689854837485    4.40713084912957
N         3.13653933207226    1.62376679373829    6.14360256597224
N         5.27045542439269    2.73544547715124    6.49828379225383
Y         2.42357665363905    0.91813100761022    3.99780331227046

