66
CSD_code = TOQXUU | q = 1 | S = 0 | Stoichiometry = C27H35IrN3(1+) | MND = 8
Ir        3.32287805463193   12.34726163764987    4.51551625980477
C         2.51254397879882    9.33944217628470    4.64813311761848
H         1.70515075821332    8.69449193861984    5.01601551178151
N         1.93512713719519   10.63259393531466    4.20542659487666
H         1.19060750414812   10.87895631358629    4.85701597127903
H         1.49724492913685   10.50131003033301    3.29500212076997
C         4.06936427541085   10.90041237329512    5.77433525175907
C         3.50496849805925    9.63798428487129    5.74861516687860
C         4.78999206689666    8.97482608940880    7.71713364852129
C         3.31709497455630    7.33613009602705    6.70007694754692
H         2.60683754336764    7.04274120231401    5.94304767199098
C         5.34275356625740   10.26931097224357    7.73623576070421
H         6.05210446377114   10.51971235342578    8.51142895641178
C         3.85419838208296    8.64347108917119    6.70154004504090
C         4.99573700443508   11.19521331364076    6.79378994511822
H         5.44761218122981   12.17315960044722    6.83998155814026
N         5.95268729282091   11.53916063149991    3.01277379319612
C         6.40182677768151   11.32645397084642    1.74092719272899
H         7.42772790970961   11.11950197576622    1.51821839272969
C         4.62180089431477   11.77316041638766    3.01457635852542
N         4.25533919417095   11.71703029895176    1.71006575619579
C         5.33382357678738   11.43855239829705    0.91822746646458
H         5.25914802050317   11.34846382707533   -0.14531524367744
C         2.93471100555736   11.90253750742570    1.17336145230753
H         2.51146055579404   10.94526743367913    0.86245161709553
H         2.98098456008077   12.55641106953947    0.30255511925816
H         2.29689046986542   12.35862057528806    1.92562362752964
C         3.12927835129392   14.55200508038553    3.84926719555296
C         1.81661811706974   13.68188941729300    5.52960204038085
C         1.84019784662400   14.11804694517754    4.14311981702181
C         3.06938347867151   13.95511395965561    6.10861044813700
C         3.95384671742037   14.35350589031191    5.04116368962259
C         0.58266292048791   13.32110777357659    6.29202994713026
H        -0.18069117660128   12.88796172933366    5.64737218732968
H         0.15723640751535   14.21750725870617    6.74664893729520
H         0.80968209172901   12.62121369592105    7.09505910809447
C         3.36047806846238   13.94260631227573    7.57312947683663
H         3.15152639013618   12.97226206656074    8.02082178137552
H         2.72694686196138   14.68129728767072    8.06554528386377
H         4.39599490025107   14.19928922476381    7.77369368431603
C         5.29934190299018   14.98626579108833    5.22252504535004
H         5.84985641298607   14.52783227893440    6.04083718327457
H         5.17363563114773   16.04483614709473    5.45595062564355
H         5.89654897321698   14.91322271721494    4.31629090556394
C         4.60801359155010    6.75574903478564    8.64857733330034
H         4.88385705729961    6.01894767498167    9.38702213795376
C         5.14870285800620    8.00932710868115    8.68033031417866
H         5.86135875651185    8.28351369432485    9.44409912662118
C         3.68467096026331    6.42130556548111    7.64772126422619
H         3.26152621265411    5.42822497229780    7.62903417539906
C         0.62348279250937   14.22103222049530    3.28172588346526
H         0.88119718103907   14.42174034732314    2.24411042780884
H        -0.00189295357301   15.04260165387877    3.63403053429504
H         0.01900980889837   13.31416697674745    3.31924726182057
C         3.60701888410689   15.23598615685443    2.60956059200466
H         2.91832340586455   15.09261046820540    1.78059227092954
H         4.59078531248374   14.87869589059655    2.30953570528875
H         3.68757920271715   16.30746517031573    2.79729515208049
C         6.81747431108010   11.50637696106920    4.16103703796868
H         6.67041221405685   10.58532214506840    4.72483267495936
H         6.59458244251612   12.34776515786708    4.81123532973748
H         7.85199313149963   11.56472663574609    3.83021736846452
C         3.19943086010596    8.65231176221759    3.47024461984560
H         2.48828355284548    8.43192091068069    2.67636383563498
H         3.64616039568795    7.71939445017084    3.79940809763979
H         3.98897055103544    9.29177395486132    3.08465143899149

