84
CSD_code = TOQXOO | q = 1 | S = 0 | Stoichiometry = C33H47IrN3(1+) | MND = 8
Ir       -1.56055841263684    6.15597098238444   11.40971741702541
C        -1.14507395073692    4.79582612636305    9.77578555033433
N         1.13613905015981    5.68058211404282   12.98259004549751
N        -2.55618197783602    7.79471400134420   12.55149846641431
H        -2.16930804088919    8.73614344136399   12.50090439451443
H        -3.46471284100444    7.82354356309077   12.08987049695962
C         0.29467946076825    6.47397911924555   12.28423604646839
N         1.01756586146116    7.58874558421019   12.00340002291786
C        -2.29964808435678    5.19354553633618   13.06689412140613
C        -4.72133306483902    5.41018358009688   17.28715959771706
H        -5.15502620197914    5.98288029278298   18.09302589503018
C         0.85234162072292    4.39338034954256   13.56852144292670
H         1.75258043057972    3.77858267653107   13.49416379782826
H         0.04867241989064    3.92787889650513   13.00203311112117
C        -4.45331257110936    6.53588731607372    9.64718821427977
H        -5.03373341141631    6.03745986616372   10.42224424439678
H        -4.88709356501399    6.26377014166510    8.68325215071649
H        -4.55993403763991    7.61372843001691    9.76083436477422
C        -2.88550640037438    5.94158838011176   14.07219700481561
C         0.58116154117531    6.39365281848428    8.65404864964457
H         0.69001158825019    7.44779945263349    8.41236943928343
H         0.71888781213929    5.82255260367448    7.73501538793177
H         1.37691176338453    6.10834646067643    9.34082006722314
C         0.57439570734515    8.75588709303631   11.28162833060614
H        -0.39549554628307    8.52980511420570   10.83780777928207
H         1.28413040721616    8.96146552722682   10.47516967744579
C        -2.04699626926944    8.26836695404829    8.62020895449885
H        -2.64238782902183    8.91955424396886    9.26110730099056
H        -2.55769832890671    8.20568574853024    7.65811753275579
H        -1.08041179438090    8.73872902974050    8.45449482018967
C        -4.11532818371624    6.05377144509182   16.24363594723168
H        -4.08157893888771    7.13188291516225   16.24767686697419
C        -3.03713219268813    3.16756835885877   14.17370427551875
H        -3.10637276846856    2.08982037245871   14.20461861261501
C        -3.53661129577404    5.32905259337317   15.17706974300354
C        -2.39863908843154    3.78953568680631   13.13863914119571
H        -1.96225837937927    3.18065325919595   12.36222357370409
C        -0.27545381051720    3.58049776029895    9.67876052551000
H         0.76156682291141    3.82088649572430    9.90143071226016
H        -0.31919826272571    3.18018474485860    8.66454816401557
H        -0.60157603254219    2.80017933651654   10.36207711968217
C         0.43746004991772    4.53458756373468   15.03489837411472
H        -0.48645908683495    5.11102395598395   15.08074455161772
H         1.20936143554875    5.07822832799202   15.58377050107541
C        -2.78105647662397    7.44673527606587   13.97717688496173
H        -3.71017158206762    7.91940969287037   14.31966370985805
C        -0.32563702107405   12.37478987757857   12.36220237021717
H        -0.81134952770772   13.18957924041256   11.83318434254334
H         0.65873777185450   12.71150965473786   12.67577778230776
H        -0.90814794063341   12.14872232937949   13.25250104264458
C        -4.78741730484090    4.01014022229612   17.32657682970771
H        -5.26904499791061    3.52251093155918   18.15982652897454
C         0.21149367285229    3.17388275633859   15.68795607547407
H         1.15102889096682    2.61912024175535   15.71756208335835
H        -0.49813446445823    2.60460498184028   15.08665424882116
C        -1.90430219814950    6.89750653550521    9.19754929730045
C         2.34808954332649    6.29058184942538   13.14509397741019
H         3.15684999034867    5.82813734024756   13.67131319193958
C        -0.21041533576821   11.14988908457434   11.46374194440615
H         0.36985031522620   11.40689360307128   10.57601585515068
H        -1.20676492603354   10.85009330130230   11.12770338524277
C        -3.47445611596536    3.60642086094428   10.08421734360974
H        -2.90116251540412    2.69146856157301   10.19714243504842
H        -4.10250950707748    3.50417791284835    9.19830735510384
H        -4.13010257826796    3.71472826121334   10.94678893628091
C        -3.61003918116367    3.91148800448974   15.22213641912301
C        -4.24386069019761    3.27730492776762   16.31042785444624
H        -4.28653483058241    2.19837557531425   16.32451581967611
C         0.46216782035666    9.98466137874365   12.18734755475336
H         1.45532934167435   10.29447190548396   12.51554162640443
H        -0.10841509658393    9.72519024872107   13.08081342968695
C         2.27657777705515    7.48996479257090   12.52600791605021
H         3.01124219766150    8.25874707598082   12.40939921857260
C        -2.58141996310308    4.78999932504500    9.90520377375275
C        -1.61884446229391    7.96595649634417   14.82135837141600
H        -0.68233758442068    7.57692448281138   14.42891749375205
H        -1.72716939913288    7.62839670408084   15.84750224195539
H        -1.59294808629232    9.05422989476775   14.82251009760111
C        -0.76875573019593    6.09528805535655    9.22008064017161
C        -3.02137852365763    6.10979972744898    9.69192457820836
C        -0.33666259006976    3.32662104064739   17.10069535794408
H        -1.29217491665229    3.84587381862287   17.08184497769396
H         0.35287780027271    3.89352115163827   17.72148505503324
H        -0.48517717907559    2.35247461846361   17.55772951987505

