60
CSD_code = TOQXEE | q = 0 | S = 0 | Stoichiometry = C18H34BrFeN3OP2 | MND = 6
Br        1.61480452273047    4.97298828537025    8.35688080229089
Fe        3.13332512407625    5.66237023339642    9.96326925174198
P         1.67409060234766    5.68819904448026   11.54693649946684
P         4.57362305803923    6.12590988191148    8.43395947690767
O         4.21162113287262    3.06816242063675   10.61854747280398
N         2.50897086681284    7.53834984962812    9.64622631713355
N         0.96832842139218    7.22255224392754   11.31601377694378
N         4.03216414343497    7.66545444003876    7.93538306111996
C         1.50310240982106    8.05047692796903   10.36835336117469
C         1.02352462383043    9.34100743927028   10.15564444861043
C         1.59570198839070   10.10386959592493    9.15510489529861
C         2.61822684072287    9.57112907997650    8.39258720060924
C         3.04783316713876    8.27439131766975    8.66464451556655
C         2.21068471327377    5.85566863922654   13.32885460962433
C         3.11355668883910    7.07158816635012   13.49017255029492
C         2.93558018769477    4.58795348020676   13.76219169430833
C         0.17625694685957    4.58062174472069   11.75224259456598
C        -1.02741850321621    5.05648836870096   10.94480793197338
C         0.56251282958811    3.16044358722629   11.34212016756488
C         6.33993425829311    6.49611788912202    8.91402529462126
C         6.36406518110481    7.72529941278481    9.81585787550690
C         6.89644264494800    5.28492718802154    9.65200669960790
C         4.67178613886013    5.27626857909496    6.77276294700255
C         5.73907660460438    5.82383694582023    5.83057788609914
C         4.81440130694884    3.76822878682982    6.95023361899953
C         3.74468854536219    4.07627428348844   10.31642314905356
H         0.21525166365459    9.72026508913019   10.75974366610013
H         1.24293670845940   11.10585738364365    8.96675190681920
H         3.07690932755725   10.13327147812507    7.59525959739657
H         1.30315723023475    5.99489879205420   13.93565609739314
H         2.58389418271328    7.99626968650213   13.26494662094373
H         3.49384701704195    7.13128621647387   14.50835734086001
H         3.95887924643635    6.98796259569021   12.80953212408679
H         2.27279228688168    3.72528653025858   13.74011412678079
H         3.77233740498923    4.40278536273334   13.09049000519126
H         3.32227691917085    4.69460972912684   14.77485684540771
H        -0.07685283583281    4.58961179684569   12.82238455193602
H        -1.41390382489893    6.00580452713174   11.31124807254088
H        -0.76716037799500    5.16211294679790    9.89409506494940
H        -1.82397161652038    4.31831883538400   11.02006648676410
H         1.51037751982008    2.86239193544964   11.78865330615772
H        -0.20445825918894    2.45368769048144   11.65470437038336
H         0.66144029006029    3.09899472103837   10.26123476160600
H         6.93133745747334    6.69326900349783    8.01253212758268
H         6.11276468382725    8.63278147370300    9.26886777495944
H         5.64219444481149    7.59742652257512   10.62211577826980
H         7.35160828889176    7.85290773454774   10.25560476833935
H         6.89052478458989    4.39817782174017    9.02185001465023
H         7.91877510105217    5.46803673952579    9.97969182089700
H         6.27951241521649    5.08464827303934   10.52639534667098
H         3.68009029975374    5.47341757178855    6.34061925579918
H         5.72409113585450    6.91201144993978    5.78242439373825
H         6.73316902045783    5.49975198329940    6.13271434197653
H         5.55786401046205    5.44378558362229    4.82638715334825
H         4.05402650188316    3.39051939435910    7.63076064075756
H         4.68739996687341    3.26691169167138    5.99246249083519
H         5.79432825156655    3.50578060170611    7.34460053696788
H         4.45611466883647    8.19380675660674    7.18407335610496
H         0.22260212738736    7.58562700759342   11.89556410125017
H         4.07345951371455    6.16944724211261   10.91311305365146

