84
CSD_code = TOQYAB | q = 1 | S = 0 | Stoichiometry = C33H47IrN3(1+) | MND = 8
Ir        2.47917086626922    4.29792430172507   12.16802438668800
C         1.67048342872055    2.43117455943827   11.05646897121849
C         1.37415481409103    5.68967824021424   11.09707712697863
N         0.23103093465829    6.34452992231464   11.39272794204357
C         4.41837168994632    6.67185436221766   12.76480839482613
H         5.44650946562625    6.87256886585794   13.09154315296077
C         4.78622545015763    1.94740976452741   13.05897046025385
H         5.56971420110152    2.24122032675395   12.36194011286283
H         4.86783462867268    0.86918866154674   13.20805345008876
H         4.96598621026557    2.42684345017001   14.02022490218987
C         4.78242450263678    8.92463257685331   16.46097391826513
C         2.76243251561431    5.55822053339263    9.01454251404398
H         3.23172624264706    4.73278340421555    9.55242944509933
H         3.48189397085109    6.37978500482542    8.92107486580902
N         1.63737311671077    6.00818319057976    9.80208394770622
C         3.68305541504584    7.21680019584519   15.14320540497578
N         4.40108782178806    5.42349426142733   11.96296084019936
H         5.04305815772160    4.76482753046395   12.40329753489829
H         4.77605236365647    5.62393952396286   11.03728641279607
C         0.68725398820960    6.86455617148635    9.31898958045976
H         0.70763051008948    7.25910408009325    8.32586870184079
C        -0.46792712890205    6.38298805480534   12.65340371888979
H        -0.14616862211359    5.53159004651546   13.24856294177704
H        -1.53744727053200    6.30445585646651   12.44840294412822
C         3.51376307184374    6.45472924653096   13.95605667227993
C         1.15863929714488    2.59779223342508   12.41683103981654
C         4.66364865544524    8.22369550765061   15.29287020054299
C         1.68987238798943    5.26569729245855   14.95241906719468
H         0.91641585780264    4.51573937790721   14.89864093923539
C         3.42562817563249    2.28052267525518   12.53802746756205
C         3.04984439249478    2.26776486106370   11.13439605155905
C         3.56663666644379    4.53128119846787    6.85631901601192
H         4.01664886990724    3.71030310014907    7.41851523079044
H         4.32024784461306    5.31559615612718    6.75841302741414
C         2.36129044943064    5.08179384208806    7.61780385547368
H         1.59483548836213    4.30980625427444    7.70336975859571
H         1.93903783957362    5.90618357487344    7.04272249138578
C         1.84179098853831    5.95963521633626   16.11925620563519
C        -0.16991867736955    7.68582957532356   13.40114291278370
H        -0.43611816545399    8.53658720205934   12.77060250971854
H         0.90218901216824    7.72892901987312   13.59783375433996
C         2.18436945521371    2.05240237857993   14.78081594660610
H         2.80777838403849    2.72986359865998   15.36244603203398
H         2.54071184178447    1.03677081032365   14.95698497480989
H         1.16482880944039    2.11951202755776   15.14772713357347
C         3.93294325974129    8.66259542140054   17.54538819354000
C         3.17078830809908    4.03600786631991    5.47118609689145
H         4.03909695105635    3.65064666127959    4.94417425479458
H         2.74531341702157    4.84461503002652    4.88226559855256
H         2.43296543308977    3.24016674634702    5.54301256742419
C         2.82587662600581    6.95744717443614   16.24518252784630
C        -0.19725677652292    7.07243962452786   10.31928054126504
H        -1.08793940152474    7.66467780308793   10.34504193247394
C         2.25617837385815    2.34113536264345   13.31721549917529
C        -0.92796479001482    7.78375176667698   14.72423204624112
H        -0.72077785110054    6.89556299264656   15.32151132922272
H        -0.54079069458521    8.64447742590330   15.27124206016580
C        -2.43320855835817    7.94821364994917   14.54815480687691
H        -2.88346367121232    7.06139178028268   14.10968098489511
H        -2.65361716710339    8.80175781783336   13.91131350136262
H        -2.90392912705324    8.11705411841047   15.51264694638332
C         3.99831277300491    1.95055313328547   10.02488104852026
C        -0.29420130223916    2.48544097599657   12.76344462888164
C         0.79489235258390    2.31073100220393    9.85218349463259
C         2.51733315425655    5.50226906559009   13.83661453408299
C         2.97431662711530    7.69619359103847   17.43697726713643
C         3.93210652075540    7.84168875474841   11.91251945616913
H         0.23554500173485    1.37583808356043    9.90616376003320
H         0.07295387406472    3.12454061370653    9.79718492583176
H         5.33192874124134    8.45474633657244   14.47823964002103
H         4.04462145920314    9.22688874383061   18.45825111392361
H         3.53246259690796    2.09141140079399    9.05260235940369
H         4.30942164725734    0.90746432083590   10.09864518270365
H         2.31169629493469    7.48115069765641   18.26223693069579
H         4.89996322789667    2.56282962544883   10.07017357155083
H         1.37922239005581    2.29866327244843    8.93587482431811
H         5.53782088885123    9.69038723294172   16.55383846890776
H         3.92497182335749    8.75039241303664   12.50631019145945
H         2.91895012988434    7.64901219139602   11.57086825414334
H         4.58317240699890    7.99696952702465   11.05433883361342
H         1.20243102201922    5.75264097053931   16.96519465085774
H        -0.91259436867906    3.00836587823676   12.03768694779532
H        -0.58827753486162    1.43451669383971   12.76257302111490
H        -0.50343197572325    2.89017619881932   13.75075204875109

