75
CSD_code = TOQZIK | q = 0 | S = 0 | Stoichiometry = C26H42Br2NiO2P2 | MND = 4
Br        0.89780792342272   15.91051185223430    2.78804943845131
Br       -2.64196183694444   13.31735858102867    3.89818593028715
Ni       -0.82157290264148   14.68131753159945    3.65901136341338
P        -2.18745532176860   16.39454916276323    3.58873365277864
P         0.56238687396076   12.98729564424292    3.77310507236238
O         0.13581639961974   11.69234974746827    4.64754882985335
O        -1.57778560926957   17.87493645240244    3.83767093421411
C         0.93352554955594   17.72214054238197    6.52056317257660
H         1.31692806198640   17.02420364652453    7.25132002286027
C         2.32219843554966   13.27074792347104    4.36307232918464
H         2.80614607258103   13.85396233912682    3.57532891917822
C         0.94895485434283   19.87838006824573    5.49966664054836
H         1.34744073542044   20.87954362631605    5.42781378901019
C         1.45906254162041   19.00521509365347    6.45289330698798
C        -0.48289673891741   11.71372207610991    5.87322562131365
C        -0.57335985167916   18.20259455383521    4.71470185390347
C        -0.05473366139563   19.48813297346492    4.63503008771167
H        -0.44357339941595   20.16385786071057    3.88963517284216
C        -1.74364451050307   11.61336347333634    8.36255874672647
C        -1.84381737823380   16.76681886206068    0.86151171408580
H        -1.42187554949477   15.76664175698712    0.75374372775068
H        -1.03990445306380   17.45464800522077    1.11690361216735
H        -2.25844293654135   17.06231701099708   -0.10104371009759
C        -3.67443099014462   16.41612275196348    4.73551447078775
H        -4.31871386078926   15.59543551500122    4.41008708026247
C        -3.25045935942533   16.13856919192577    6.17530152007771
H        -2.64582379687333   16.95513322065785    6.56961032792457
H        -2.68816263796871   15.20721056323794    6.24211262284180
H        -4.13158998985926   16.03298267038751    6.80634824999158
C        -0.57036621028025   11.95697958782815    1.47847666361341
H        -0.95278017724918   12.95397127168285    1.24477368516715
H        -1.29560605067033   11.44609999444772    2.10902923740956
H        -0.47686537869175   11.40537553486588    0.54433429559468
C        -0.88748596877067   10.49412288041582    6.40136104791468
H        -0.71512696771938    9.59473336395291    5.83145145332232
C        -0.70876686521990   12.87570403994587    6.59259694981479
H        -0.40221796996053   13.83010892518153    6.17201560190845
C        -4.43189057762985   17.73472796141082    4.64871285364954
H        -5.24240650521929   17.73367624261995    5.37628027581207
H        -4.86586055292941   17.88812805531425    3.66400305588133
H        -3.77637836739378   18.57439018611024    4.87448998961134
C        -2.41942514480927   11.54418901160386    9.69789798510653
H        -1.79061884908777   11.01409927502199   10.41326994282684
H        -3.36107848739846   11.00354028429207    9.61821557448243
H        -2.62018602176558   12.53961936449449   10.08543501397650
C        -2.93264982186845   16.77360976624353    1.92936040805605
H        -3.32342785512791   17.79381623525464    2.02467957690139
C         0.78374619060668   12.06255081474477    2.17429208287117
H         1.10841599903175   11.05807935572728    2.47211586609109
C         2.56955103408874   19.42814085111281    7.36498582618048
H         2.54145495259023   18.87004222350277    8.29800126297816
H         2.50596619005251   20.49112294754238    7.58574444331190
H         3.53171229594160   19.24048758631463    6.88739084291706
C        -1.50755287239163   10.45247625808344    7.63371898298058
H        -1.82161166181068    9.50068699062550    8.03606382155339
C         3.05562739532600   11.95046751792734    4.55962334381168
H         4.07923731006160   12.14786646075856    4.87508813301157
H         3.09024901311607   11.36628886820372    3.64350262859685
H         2.57392862435701   11.35179850708474    5.33115492288262
C        -1.33695939732393   12.82460532336189    7.82283901599627
H        -1.51358626715848   13.74193451942708    8.36631460416604
C         1.80840693176892   12.69408030145255    1.24002361366949
H         1.82989606558161   12.13895790703609    0.30297562315189
H         2.81029686609087   12.67914990315518    1.66106439394597
H         1.54754528020472   13.72540805429870    1.01293427952811
C         2.35613160929522   14.09669191368597    5.64570786760645
H         1.94374224889434   13.53647090095738    6.48450257040230
H         1.80082087518742   15.02617677827855    5.52342330798883
H         3.38482535526024   14.36002553781791    5.88718244374674
C        -0.07463829728022   17.32441817553109    5.66384550830358
H        -0.47639566127233   16.31502336307745    5.71814522131182
C        -4.04968464735749   15.80775854218189    1.55499849113002
H        -4.41928651292555   16.04738423117788    0.55879442643514
H        -4.88586244283110   15.86148130357200    2.24766711742626
H        -3.68650136846465   14.78197018529963    1.54021124695670

