67
CSD_code = TOQZOQ | q = 0 | S = 0 | Stoichiometry = C24H37BrNiO2P2 | MND = 4
Br        0.86292477513058    4.57091873541078   18.86053851101919
C         2.50116361073870    3.02226888440691   15.31518539839885
C         3.50799631708726    2.07521151844237   15.55723774145511
C         4.27433652031975    1.52055003969596   14.54945380844098
H         5.02960804665604    0.79213112894448   14.80407562144557
C         4.06418735639442    1.91977033594703   13.24076758849693
H         4.65161619377281    1.48692847908365   12.44508380988646
C         3.11415509446575    2.88406452564577   12.97018204962455
H         2.95236170517373    3.21920052824295   11.95601964910838
C         2.34987831189643    3.42750265159740   13.99346009197393
H         1.62357364298980    4.18085561524125   13.72993744929414
C        -0.57001421309815    2.66772042598695   13.85492593388970
C        -0.11632666749586    1.58223963056417   14.59029099154556
H         0.06655042580639    1.69279248717881   15.65293315965135
C         0.12425210016785    0.37459488804468   13.96252924201868
H         0.48878560853935   -0.46132107337584   14.54071535893312
C        -0.10012475985337    0.23547762552618   12.60415887166084
H         0.08885140643437   -0.70907184885138   12.11749452129053
C        -0.56835424853211    1.31411139786393   11.87315660257729
H        -0.74779132626620    1.21383093085142   10.81311714005972
C        -0.80123160028701    2.52818595154025   12.49098862363414
H        -1.15713184334268    3.37978616324335   11.93116054588201
C         4.50282310208326    4.85383868342266   17.53267858576229
H         5.16533814476629    5.63417409080531   17.90311031635399
H         3.54130766049238    5.31727273880542   17.27833259796178
H         4.93281026920811    4.43717624462460   16.62101661328020
C         4.30050816564958    3.76174900640368   18.58103692097637
H         3.90531212242090    4.21726741172824   19.49469650451545
C         5.59295535728954    3.01365669247145   18.87438602373822
H         5.94328321490148    2.49729670978810   17.98199222640481
H         5.45716334990225    2.27974937667399   19.66575912127991
H         6.36413800015249    3.71556416418947   19.18825419733979
C         2.53894678771314    1.88665600937887   20.64235713766110
H         1.70238835268699    2.57884731381856   20.70335408530689
H         3.43642324694104    2.40306380198418   20.97366458772743
H         2.35000368217529    1.06172976081422   21.32795621753194
C         2.69418219897779    1.34379599066915   19.23023102658906
H         3.58775532346365    0.70893903869419   19.16111212042516
C         1.47085042564933    0.53306894744091   18.81006074159901
H         1.35317838695732   -0.34644784565666   19.44048119642092
H         1.56535708424116    0.20415567488937   17.77425665261181
H         0.57127202219536    1.14096453192959   18.90625893768202
C         0.75246188821826    6.63527118970084   14.50131684171650
H         0.74581613464928    7.70742194052429   14.30942715994973
H         0.69294348444360    6.12290689253516   13.54309037688027
H         1.70020616780350    6.38210524250191   14.97862165571412
C        -0.41989926974643    6.25463855889364   15.40107307492389
H        -1.35036787347807    6.37104485869369   14.83410158678008
C        -0.44026363798904    7.14611116025048   16.63624782195818
H         0.47176531273318    7.02078717202834   17.21573023058664
H        -1.28356266641212    6.92434508723153   17.28461400525491
H        -0.50799770389753    8.19080547594369   16.33563415034500
C        -1.97957485361488    2.74059618208432   17.27483344520073
H        -2.77347849891084    2.61014936710178   18.00821422673350
H        -1.04490211458452    2.41027657915676   17.73309911672548
H        -2.19586674858252    2.10404926667061   16.41749981389174
C        -1.87824687674471    4.20605458588402   16.85858463209034
H        -1.75479818001277    4.80457270723047   17.76507317386082
C        -3.13617070446313    4.64364601086461   16.12030310063725
H        -3.20450364483720    4.15771866733522   15.14848039776889
H        -3.16346308862617    5.72039016502372   15.97557842437953
H        -4.01238213854526    4.36165136353935   16.70212048107713
Ni        1.49303931664417    3.68703156271743   16.85012139439045
O        -0.81592562687797    3.90204058786491   14.39660384180922
O         3.76164265883972    1.68577909864918   16.86610736193141
P        -0.31564309769614    4.45267780168995   15.84956676432022
P         2.97690840717315    2.63126111177059   17.92904839963329

