77
CSD_code = TORBAF | q = 0 | S = 0 | Stoichiometry = C26H42Br2NiO4P2 | MND = 4
Br        4.99335391179523   -1.65877876459489    5.80760227858418
Ni        3.57854575948689   -1.75865237353849    7.59640617724101
P         2.20154192848279   -0.34453077187774    6.62911452462704
O         2.76564106072051    0.72020477154352    5.55146211378111
O         7.38351757579417    3.72122137589688    5.95032888945321
C         3.92378550279345    1.45394660868292    5.67544610726770
C         4.30564191069498    2.22279232631131    4.58842442416361
H         3.69888436589029    2.20819617232612    3.69676352475284
C         5.45355997597030    2.99419415293909    4.64194153164112
H         5.72296192027360    3.57900225857604    3.77749234199302
C         6.24010907506865    2.99980607820261    5.78824549879120
C         5.85374891073680    2.21919589854147    6.87846264411535
H         6.47342095617540    2.22387770007560    7.76084844377285
C         4.70746922263060    1.45904035329909    6.82197094422168
H         4.42029954634156    0.84451758612842    7.67093622842385
C         1.04394975445536    0.75088804502624    7.62342203952681
H         0.43855973547834    0.08610310940612    8.24384985716735
C         1.84578389868952    1.66365207551022    8.54740255959431
H         2.44307570437847    2.37275063719790    7.97523635619544
H         2.50070167064470    1.08407129027528    9.19611321630398
H         1.16869775796902    2.22697469287204    9.18721342048373
C         0.14088598629861    1.57926270344197    6.71772056078177
H        -0.40481516095431    2.30342143567878    7.32084504741292
H        -0.58815267878069    0.96344304078268    6.19731569750143
H         0.72688571388294    2.12738633093562    5.98170051192683
C         1.04246052740154   -1.23066102824249    5.47887504242553
H         0.53917135599464   -0.44726229845677    4.90164677415122
C         0.03155682910600   -2.05690033451300    6.26570167188746
H        -0.59185872919471   -2.63089639943526    5.58144324974164
H        -0.61756222156248   -1.43211946693334    6.87462788952723
H         0.53954601967456   -2.75969920869923    6.92616005389777
C         1.82551875040496   -2.11597225223257    4.51588829312942
H         2.32062359682689   -2.92510270922341    5.05507871196489
H         2.58307515487866   -1.54207307358514    3.98553685927058
H         1.15383503852185   -2.56250498046753    3.78410259673744
C         7.84539447791998    4.49619751851340    4.87097701807681
H         8.05795568983035    3.87658167327142    3.99402998331135
H         8.76794895898480    4.96053687752093    5.21568501996637
H         7.12782086009717    5.27773581804195    4.60003973363445
Br        2.17052363081957   -1.85214278075644    9.39043070119662
P         4.95065692672679   -3.17936630088147    8.56049249435053
O         4.38350171868434   -4.24083783608994    9.63992994297352
O        -0.22263004888043   -7.25760192232045    9.22482550149598
C         3.22717529688453   -4.97670724027775    9.51287090158317
C         2.85211394002500   -5.75837937196567   10.59311146305214
H         3.46202642743457   -5.75081389585523   11.48270657453054
C         1.70749179342997   -6.53435224297376   10.53520675143401
H         1.44377991680022   -7.12970950136097   11.39419196163997
C         0.91722115078201   -6.53162755800878    9.39143992005507
C         1.29589816123855   -5.73709435990589    8.30863981059933
H         0.67321351861355   -5.73510953590278    7.42837051920203
C         2.43910615702695   -4.97268537197543    8.36937391461181
H         2.72106574725409   -4.34848410867676    7.52567746461879
C         6.09565438119908   -4.28180870057959    7.55904830339479
H         6.70812309237688   -3.61942598642329    6.94302920581902
C         5.28495995188664   -5.18028147848857    6.62878169596836
H         4.68227446152386   -5.88892248689510    7.19581297675609
H         4.63419212828558   -4.59007988877639    5.98547770021551
H         5.95661590428229   -5.74405545179924    5.98367013362980
C         6.98981997484757   -5.12516716474523    8.45956376441755
H         7.53288703046252   -5.84671403368590    7.85099229036422
H         7.72082776585442   -4.51955738502008    8.98900888910563
H         6.39760214790668   -5.67688943200731    9.18779414364595
C         6.11989610098405   -2.30352172870445    9.70805390134475
H         6.61633636868980   -3.09163877493123   10.28478284347136
C         7.13785376754022   -1.48627939749406    8.92108262930017
H         7.76865941193102   -0.92066545674286    9.60553417202560
H         7.77915098923732   -2.11661441808698    8.30975626456176
H         6.63641045412487   -0.77656189720231    8.26324318332628
C         5.34596811456550   -1.41096685929175   10.67165993416867
H         4.85624678570860   -0.59871168991691   10.13226117140389
H         4.58497793739526   -1.97833881299290   11.20399951671311
H         6.02255612219591   -0.96889957679969   11.40166988004469
C        -0.67318626633680   -8.05241402700427   10.29446186523412
H        -0.88857955671291   -7.44774797850448   11.18105669402659
H        -1.59240968799980   -8.52063242999522    9.94621472984730
H         0.05287796941775   -8.83073978616838   10.55151835243393

