48
CSD_code = TORHOX | q = 0 | S = 0 | Stoichiometry = C17H22BBrN6Ru | MND = 8
Ru        5.09480540610101    1.87995541899786    3.03345664707522
Br        6.17990517115490    4.20182123463423    2.66868740216852
C         5.66833684379433    1.66051182983050    0.90357397638563
C         5.03014259835258    0.49696118391564    1.29704235821145
C         5.80615417270138   -0.79829132154770    1.47393670052298
C         6.35842824935501   -1.00610912037323    2.89834872071494
C         6.45746340802491    0.28397888606206    3.68275024979144
C         7.23246349531597    1.33813613698243    3.21942569485314
C         7.98951384176949    1.28149540775643    1.90774585302002
C         7.16243349401555    1.75793026428015    0.69771074838800
N         2.44119993177162    3.19940321794485    3.53326308406129
N         3.37873520425034    3.00594823815851    2.60251135814960
C         3.05250802380431    3.74259191664538    1.54784117464174
C         1.86298135192842    4.42259727958062    1.79686281168508
C         1.50971525527404    4.04535571109455    3.07368042027522
N         3.79482907575514    2.84966404314614    5.57142571049211
N         4.96957012571071    2.62472631372319    4.98345134235989
C         5.91837765749353    3.03614505129566    5.81611595894724
C         5.33939158726136    3.53284209213882    6.98104922090899
C         3.98350294112259    3.39402662953261    6.78042115881039
N         2.58369468259375    0.98527750630260    4.53456425339534
N         3.52379263503408    0.49860341837845    3.71677193217992
C         1.69036197416999    0.03484314700717    4.83360572095726
C         3.21259440412281   -0.77156072294487    3.48667419168020
C         2.05745302999776   -1.12058668329138    4.18105571345941
B         2.49117087636911    2.47365132231306    4.87937052815248
H         5.11183690053699    2.36678670537283    0.28882728592123
H         3.98960666782243    0.37066354548743    0.99103103931187
H         6.63089108156469   -0.79647182510600    0.75672569639550
H         5.16472705094596   -1.64059096617355    1.20208844253551
H         5.73740998215284   -1.71021383499737    3.45356261656511
H         7.35927814574510   -1.45264705093924    2.84574093785592
H         6.36999619341449    0.14995101953500    4.76462136879342
H         7.70257655800904    1.98678599615969    3.95511014941258
H         8.34130366618873    0.25827020966092    1.75015922333737
H         8.87108439431538    1.91925491487637    1.99047685166407
H         7.40840207722060    2.80125797196682    0.49553497658589
H         7.43078485171601    1.18068474389832   -0.19526602073013
H         3.66639218366073    3.79885843206075    0.67008200791392
H         1.34903831595986    5.09353948591697    1.14081760971588
H         0.67020381256903    4.32364582232299    3.67757071875757
H         6.96175193241929    2.99982145636582    5.57069964538104
H         5.84237867920149    3.93824865006549    7.83387860213870
H         3.15376869742835    3.64667554083846    7.40852658144032
H         0.86140831090756    0.24072417089243    5.47937559981812
H         3.77808303586889   -1.39900092071985    2.83378320616135
H         1.56901719534152   -2.07272548327159    4.19560940093623
H         1.54783482976633    2.71516301422361    5.54740112880112

