83
CSD_code = TORJUF | q = 0 | S = 0 | Stoichiometry = C34H39ClN6P2Ru | MND = 8
Ru        8.45979191224139   11.86980611953606    1.91080779835636
Cl        8.70745858836113   11.05294098503484   -0.32718911120166
P         6.20022136016934   11.83672976473445    1.81427505769149
P         8.71548493546819   13.94393303483189    1.04525594323080
N         5.35944184218897   12.48929443750153    3.15459591990054
N         5.50708650386088   10.27956541165808    1.79966554730868
N         5.26957583320054   12.55788446968230    0.57515722105205
N         8.40666240289834   15.27729089736975    2.05222054314227
N        10.32969636781589   14.29382065452831    0.58710950115645
N         7.89415020462636   14.53427847403574   -0.33652928085522
C         8.94796306041537   11.68314888195731    4.11598322458501
C         8.63047604051778   10.36378381124287    3.61958194504040
C         9.57715628985091   10.03103540863539    2.61964987466231
C        10.48704347060551   11.13718217654414    2.47426428276844
C        10.12538886384902   12.12998012817920    3.43568342156217
C         8.42409762494475   12.22854341198236    5.41292218776592
C         7.71108297874748    9.39865135431000    4.30495640605032
C         9.77448125502143    8.69561046672290    1.97490248747713
C        11.78111627950365   11.03532350719788    1.72805836437491
C        10.96550940586249   13.30457522634074    3.83158005752202
C         4.98291847620581   11.85114085339771    4.31113197969380
C         4.58943448010548   12.78542147353999    5.22176299667806
C         4.75561431306874   14.05501356052379    4.61942696658195
C         5.23950501778292   13.84180968137454    3.36529320676430
C         4.18939424107443    9.93170714205321    2.00230996738181
C         4.03665507990223    8.61467684820063    1.69981264177813
C         5.29473394101441    8.13028731455009    1.26446595902665
C         6.16789009831129    9.17071259242134    1.32519579694309
C         3.99375364397505   13.08168016797692    0.61833857341716
C         3.53622277635078   13.21764023846779   -0.65439962460445
C         4.54507695034696   12.73741636908634   -1.52298340624832
C         5.58596177136928   12.33524738852237   -0.74840609887947
C         8.47399114554800   16.61577140972265    1.73303840095402
C         8.16964195380151   17.34247794103227    2.84190189056419
C         7.89726767497039   16.42640676005220    3.88811902608585
C         8.04906321722938   15.17704040515492    3.37389719394961
C        11.05084832677654   13.49185750197787   -0.26809423187469
C        12.30720051250867   13.99748447210494   -0.39769156121622
C        12.37957066937428   15.14955152638477    0.42048021083985
C        11.16480578842754   15.30396561256726    1.01375372450758
C         6.69759971338595   15.21983937965246   -0.31467610551901
C         6.28389472563721   15.42401299055389   -1.59255880516634
C         7.23880632967292   14.81916152587405   -2.44370202680787
C         8.19969095467294   14.27256485263036   -1.65230353873379
H         8.71873985166544   11.55759316677241    6.22296808110066
H         7.33631467299476   12.29952108239607    5.41934697984516
H         8.83786002832974   13.21142736964366    5.62521666948366
H         8.30871475281213    8.73339151594214    4.93267295998535
H         7.15668205640919    8.78451524227445    3.59667000550030
H         7.00496543047765    9.92191449334322    4.94447803117705
H        10.72713747336003    8.27634667280843    2.30407918494575
H         9.80999063384582    8.78654572709477    0.88844167404097
H         8.97831276548272    8.00494129300768    2.24348107418335
H        12.45958227599968   10.37675353386327    2.27560251819139
H        12.25898675069475   12.00502779234714    1.61346933811311
H        11.62328971989558   10.60949265971840    0.73845726465413
H        11.58038153984384   13.02233983120511    4.68914815250497
H        10.35948701031907   14.16300583376413    4.11811950043758
H        11.63005391094680   13.60765894597242    3.02519761314604
H         4.98724479531794   10.78110442973336    4.38017759662192
H         4.21849541671057   12.59371262964988    6.20954632518166
H         4.53587531932059   15.00493681278411    5.06449056909739
H         5.49561424706252   14.53938908934858    2.59139223722188
H         3.46983693903677   10.64899310875235    2.34613648658783
H         3.12893689677264    8.04803640192284    1.77168828300494
H         5.51238776340070    7.13136057489226    0.94128248047887
H         7.19983510646213    9.23648776798673    1.03534756368481
H         3.51864648520382   13.33371084479748    1.54576126680594
H         2.58299871363594   13.61461575412321   -0.94425709565403
H         4.49827874586179   12.69941787914851   -2.59284032911095
H         6.53244233145303   11.91050807143081   -1.02433633997486
H         8.72324592140361   16.93771501394916    0.74047411840466
H         8.13743537773564   18.41208552087998    2.91088214857682
H         7.61847490352497   16.67419062510968    4.89310328809490
H         7.89810595015849   14.21034813791349    3.81291401677590
H        10.61191730187827   12.61136099366832   -0.69741181329227
H        13.09540347972506   13.59722370447105   -1.00457190276955
H        13.23385503898868   15.78431196880532    0.55330546404879
H        10.83825918595393   16.04915967914977    1.71148023875677
H         6.24736533747460   15.52835290302143    0.60889878341009
H         5.39818085687815   15.94571071575519   -1.89633714560966
H         7.21298879527526   14.80002955350785   -3.51503278013731
H         9.08224919600492   13.72749602919726   -1.91970703518536

