107
CSD_code = TORKIU | q = 0 | S = 0 | Stoichiometry = C34H63ClN6P2Ru | MND = 8
Ru        2.35584755060956   -2.10883768220642    2.87596328250502
Cl        0.59173850088833   -2.15324574440300    4.49388340815417
P         2.74774331927428   -4.40507894033882    3.20564636867867
P         3.76730821550122   -1.20496819828550    4.49720030191229
N         4.10105083227275   -5.08559292358743    2.47252099114913
N         1.49217788068600   -5.27080541874348    2.46821463538928
N         2.87847325613591   -5.27459555351552    4.66904552663213
N         5.45975854670019   -1.26407646190677    4.28821801730578
N         3.59890260301672    0.49516238330969    4.49344915454841
N         3.78793311025126   -1.64798745163700    6.14166860592519
C         2.96526867110267   -1.52984271864978    0.68186314769651
C         1.77946180445086   -2.35262285821781    0.63580972390838
C         0.73706449130948   -1.66253047679255    1.30500579395376
C         1.26632583070906   -0.41357954774139    1.78087266584957
C         2.61957310450176   -0.31812154404274    1.35918396851489
C         4.08384674005383   -1.62254384900916   -0.32136890643063
C         1.63249715490277   -3.54109427000130   -0.26897826157319
C        -0.73880634843027   -1.92146247152883    1.26811519927572
C         0.39053516000343    0.73037772176557    2.19722253270414
C         3.39378447610457    0.96228940725622    1.30612099870322
C         4.84834281539853   -4.43544854791642    1.42267667852834
C         6.30101780102665   -4.92892386226811    1.57295381287229
C         6.21878196932552   -6.06670612140237    2.60081724000716
C         4.72054131781689   -6.38005494757031    2.66239060088039
C         1.60502252033865   -6.71368702837471    2.24508076588621
C         0.17197513210318   -7.23247024374310    2.09452197061262
C        -0.66779518034885   -6.19403228528740    2.83293455481022
C         0.08008440679104   -4.90538799274732    2.51007419117120
C         1.65648685855091   -5.49402331176276    5.45554001347970
C         2.12136620967691   -5.84445760535957    6.87597414647240
C         3.63474895933933   -6.01549286599527    6.74192167741607
C         3.97607733711907   -5.06137665641032    5.60282756631234
C         6.09076459046977   -2.55403791329128    4.53764939159572
C         7.54230143372676   -2.30917716084623    4.12664989166863
C         7.43100509964237   -1.30099727287526    2.97212446414414
C         5.95368801550673   -0.88322485224290    2.97470100864960
C         2.33540059395542    0.96146376414671    5.06964400365074
C         2.49693911739739    2.47208510269280    5.13260452805130
C         3.95282651322945    2.59279756671707    5.57642085809464
C         4.64051538301282    1.48657350535048    4.77269789672546
C         2.64184292951247   -2.10369732895300    6.91840939751271
C         3.23081648438198   -2.47542838202059    8.29144944688832
C         4.63105764846360   -1.84317210503579    8.30511463550982
C         4.61982399298193   -0.91844761853242    7.08861194810030
H         3.80046710945922   -1.04869563911157   -1.20890777648608
H         4.26924484426045   -2.64737684320772   -0.63008432212811
H         5.01662331361446   -1.20472377533680    0.05360219537898
H         2.12067454760351   -3.33792946611624   -1.22270190334150
H         0.58251361879148   -3.74657023966232   -0.46618297569112
H         2.07724152698105   -4.43666011886449    0.16398621100810
H        -1.23878933499227   -1.04962476082477    0.84105551122919
H        -1.13854554729196   -2.07561751171343    2.27041720285057
H        -0.98679067002659   -2.78565115431696    0.65738733926841
H        -0.21167525029357    1.04488617895678    1.33958807715160
H         0.97749423764345    1.58447992549324    2.52467904262334
H        -0.29471223738590    0.43738156073804    2.99227690778965
H         2.94109847284371    1.61191673075858    0.55254666569058
H         4.43026210883835    0.79184430997420    1.02745662217848
H         3.36567497991373    1.47731781539724    2.26176848066604
H         4.74024561684926   -3.35524602744468    1.53451486267594
H         4.46817919088062   -4.72814721902265    0.43354769366195
H         6.68027171617512   -5.28965056435217    0.61725648898174
H         6.95805307722698   -4.13282573938022    1.91491900450084
H         6.80490800220642   -6.93620041248068    2.30837967757160
H         6.57172274991640   -5.72645203254805    3.57509014525116
H         4.46293119913561   -7.05593461078439    1.83386035342354
H         4.40731368839977   -6.83957726537699    3.59549974451658
H         2.10915345001299   -7.19770524857977    3.08624619972539
H         2.18988604679735   -6.91396004337787    1.34100405209883
H        -0.11046329983629   -7.24991033291017    1.04084965465465
H         0.05883996834720   -8.23791277168185    2.49718758616795
H        -0.67419597366249   -6.38737192093872    3.90481013921957
H        -1.69878813832229   -6.16357699563996    2.48412835164750
H        -0.09966921901726   -4.11008360397019    3.23133513379924
H        -0.23102181464507   -4.57119782930607    1.51623882009919
H         1.11322104800664   -6.33295020597177    5.01628233984459
H         0.99908336476124   -4.61922991874685    5.45242270851819
H         1.88510142371235   -5.03376445189272    7.56382154442670
H         1.63905806931946   -6.74864581514133    7.24525025907860
H         3.87289544532427   -7.04000586882536    6.45024301629018
H         4.17268834164800   -5.78299374403913    7.65971422751931
H         4.01584697830739   -4.02865430107463    5.95872962929953
H         4.92739781104923   -5.29953406262119    5.12843820390727
H         5.63235220538765   -3.33766243097910    3.91924499754434
H         5.99348541687221   -2.82982091423031    5.58523853242314
H         8.09253441247849   -1.86997487593131    4.95885552254882
H         8.04625813104707   -3.22964475339572    3.83604277610414
H         7.70780283796255   -1.74297088364807    2.01527039503270
H         8.07829847181116   -0.44174977398963    3.14328223543738
H         5.82358047272349    0.18504488179144    2.81968164370617
H         5.40300193788504   -1.42128199913654    2.19022672616547
H         2.18833903058017    0.57986160345959    6.08859802044859
H         1.49702691551267    0.61753222530040    4.46762770057538
H         1.79715699416633    2.93794751543113    5.82383685995322
H         2.36640754787011    2.91759375218161    4.14493694611880
H         4.38340969695253    3.57241257328644    5.37461923366286
H         4.03007249343072    2.39446794895265    6.64661895920481
H         5.49466023007437    1.05442578309070    5.29613672326933
H         5.00570154784360    1.90436892092511    3.82452906220227
H         2.15332736896232   -2.93170057050383    6.41144106094939
H         1.89103387906379   -1.31466565732595    7.04517613285108
H         2.60632335503584   -2.07806781634616    9.09054550050024
H         3.29603649487990   -3.55319463910670    8.42342297299011
H         4.83655635082667   -1.30123731058643    9.22679657252533
H         5.39621718173856   -2.61019127008206    8.18006667720232
H         5.61189641932432   -0.74258802128858    6.67741038499815
H         4.17176329553138    0.04583044814463    7.36668940470838

