58
CSD_code = TORLAN | q = 0 | S = 0 | Stoichiometry = C24H30N2SiZr | MND = 12
Zr       -1.16881862915434    8.92086689765981    2.55885733933711
Si       -1.16901367802156   12.30606110840935    2.55870242237743
N         0.27366380280079    7.60708440901474    3.08142190208443
C         0.48042181367242    9.12404494054051    0.47997118709579
C        -0.83823691373291    9.15557054662975   -0.05017835162344
C        -1.46780834938705   10.30922114381959    0.45009938434154
C        -0.59111854052871   11.02011638698227    1.30963343879559
C         0.61814065731649   10.25781024481397    1.36949041151575
C         1.84420884230176   10.46918103275351    2.02725362393831
C         2.90034144284283    9.63003418244121    1.76498469914820
C         2.78034508037124    8.56742587371567    0.85521063098658
C         1.59186727560144    8.30488482288101    0.21975616742277
C         0.18997133040319   13.44352758769095    3.27381182174990
C         0.42413080766289    6.34778718223429    2.37653544759523
C         1.26893876671360    7.69019974842955    4.12915325024761
H        -1.21553404513351    8.51027648330939   -0.83348653142307
H        -2.42983784974707   10.68694960686316    0.11599801670213
H         1.97183775667965   11.31823354130568    2.68655315815910
H         3.85169965735763    9.79591207156226    2.25065987132021
H         3.64658461153112    7.95327557553425    0.65311314564844
H         1.51302866867346    7.49385436302717   -0.49308371128238
H         0.82631772860424   12.93633517514631    3.99065358637038
H        -0.26162835973593   14.28866983908651    3.78243660895218
H         0.82228685595000   13.83498827833084    2.48400528949363
H         0.21530522760801    5.48376781402719    3.03583797490748
H         1.45739649963208    6.22143756544961    2.00818068948038
H        -0.25772074323527    6.31166703508312    1.51946420257386
H         1.08052156092184    6.95207770128332    4.93350273032194
H         1.29144077731835    8.68912537368141    4.57357449599297
H         2.27657593632533    7.47863288912238    3.73065193530831
N        -2.61187832939718    7.60779040324098    2.03608486586674
C        -2.76274763303985    6.34833789994252    2.74060919965130
H        -2.55419821491120    5.48444180970514    2.08105605651001
H        -3.79605317839743    6.22221748864669    3.10892526507096
H        -2.08091190787089    6.31175481327713    3.59767145442224
C        -3.60707160108258    7.69146471374332    0.98832163180765
H        -3.41884517270168    6.95348199420337    0.18379902871989
H        -3.62924671990868    8.69050052097398    0.54413885311795
H        -4.61479403574632    7.48011739461584    1.38672315061126
C        -2.81737725760925    9.12405418974841    4.63834848570087
C        -1.49852897205036    9.15578803491512    5.16800685234287
C        -0.86924682742693   10.30941991640925    4.66732933633436
H        -1.12090134758029    8.51064402072277    5.95127748221797
C        -1.74634967028604   11.02013542906884    3.80805319506498
C        -2.95556174535490   10.25771092482480    3.74876491534633
C        -3.92861384650453    8.30477142806276    4.89905454180617
C        -5.11737023319323    8.56711756104330    4.26404107223211
C        -5.23784374435608    9.62963722762281    3.35422824810805
C        -4.18191232946763   10.46888234697038    3.09146619897798
H        -4.30988851388656   11.31783455868194    2.43210857907975
H        -6.18940852580088    9.79535869824506    2.86890428371233
H        -5.98345273513916    7.95286961874106    4.46651457434075
H        -3.84939112197055    7.49379109539652    5.61190937003107
C        -2.52850954732023   13.44270086972240    1.84325037302213
H        -3.16465636963344   12.93499030069485    1.12659701904418
H        -2.07728469620637   14.28786492289778    1.33432999595320
H        -3.16096968529580   13.83416070802739    2.63294024591364
H         0.09290597052538   10.68724168902686    5.00098088745430

