31
CSD_code = TORMIW | q = 0 | S = 0 | Stoichiometry = C14H8N4O2RuS2 | MND = 6
Ru       -0.30060909715806   13.34896717071113    1.88090440858582
S         1.89575285133548   12.53230287521066    0.93009960141699
S        -2.50770310543577   14.19351387727850    2.78157665090242
C        -2.28816000537406   13.52271573589266    4.26911790028139
C         2.33662674476846   11.75813080665804    2.31505215595379
N        -2.11805924431544   13.04583699802787    5.30720806821177
N         2.63147313606169   11.22022262955873    3.29366513235980
C         0.00163471492032   15.01637481920772    1.10613384828718
O         0.17077767209529   16.02701814705751    0.60752925047870
C        -1.15110861707554   12.86265241512690    0.29598354695502
O        -1.66509208621013   12.59330365850634   -0.68494341725328
N         0.60361727572259   13.75123225459147    3.66303977729471
N        -0.56815907728439   11.57264629691123    2.84456313257503
C         1.18748978271235   14.89956996202667    4.00523661350294
C         1.78401234920700   15.10439678017514    5.23387375978894
C         1.77751627007927   14.06970592177451    6.15805342699605
C         1.17591682307272   12.87677688183383    5.81240337128138
C         0.59351222382778   12.74129634409025    4.55393796174334
C        -0.06738066817271   11.51477715705585    4.09345291626503
C        -0.18118090322353   10.36309656320697    4.86934699907131
C        -0.81853352879663    9.25445355803924    4.35063056048907
C        -1.33000587658737    9.32234636596307    3.06274334073840
C        -1.18196092532888   10.49698949965208    2.35170535777587
H         1.17805230656564   15.69060378547238    3.26453092176451
H         2.24175399762888   16.05434714622604    5.45689156568703
H         2.23316874637310   14.19290082595406    7.12802321078270
H         1.15675682034739   12.05778653855656    6.50951800240957
H         0.22467886891384   10.33813128595702    5.86526338921087
H        -0.91570086317812    8.35398117275147    4.93660335539600
H        -1.83517619956538    8.48284526134778    2.61362392058661
H        -1.57231038602392   10.57777726513455    1.34393127070812

