49
CSD_code = TORNIY | q = 0 | S = 0 | Stoichiometry = C16H24CdI2O6 | MND = 6
Cd        1.48934025695434    2.18788842650228    4.11942506596330
I        -1.13419321163677    2.39756542807887    4.65866295065069
I         4.07600126952499    2.00539998935183    3.45912897533635
C         1.50336816801988    0.17788808269664    1.13808570435755
O         0.89318344496968    1.34571441541576    1.52137447709397
C         0.80342700431658    2.37298315658054    0.55626537806204
H         0.14979595841215    2.06248634812285   -0.27004919148063
H         1.80403540447961    2.61431278912609    0.17235330954129
C         0.21877602503055    3.61892761067738    1.21134911498129
H         0.05904686962977    4.38547871822883    0.43862885701701
H        -0.74455316780719    3.38308838930582    1.68419746662308
O         1.14724086968417    4.08381255357050    2.16689703745828
C         0.82415145476743    5.34374539214709    2.71293958926077
H        -0.14639865036215    5.30797079209205    3.22719713241227
H         0.78153453243843    6.09804335290897    1.91317327796445
C         1.91636217341996    5.70919083477125    3.70996163676150
H         2.89841276334418    5.54126862211383    3.24384925608501
H         1.82821590786182    6.76897488187214    3.99286732657343
O         1.76727335723435    4.89244585522806    4.84951286619179
C         2.83369837964720    5.01470049870073    5.76474141483941
H         2.98319872106269    6.07007567226169    6.03725058602081
H         3.76090689679061    4.62771463626844    5.31790871743949
C         2.49295346138216    4.21741081220755    7.02135198817524
H         3.36839117238954    4.21682652005591    7.68539347371942
H         1.64283200244470    4.68370150500388    7.54200460494121
O         2.15138899170496    2.90220034505818    6.64690826253028
C         2.15390337722704    1.97306025609742    7.70841716032530
H         1.78631987062029    2.43955051492496    8.63194848157363
H         3.17677635899150    1.60238468547292    7.87025091463934
C         1.22891155188557    0.81277751430716    7.35130354193157
H         1.27347829276800    0.05303435009425    8.14650769929088
H         0.19530030506928    1.17751281429091    7.26776370772729
O         1.64968706211546    0.25508501331867    6.12567628106711
C         0.86173896502560   -0.84466033073684    5.72500605334467
H        -0.18292901720900   -0.53927476704132    5.56960401167841
H         0.89124918801184   -1.62743639542979    6.49822604934663
C         1.43539503017755   -1.40413995860046    4.42961895211576
H         2.51195257991743   -1.57761480224433    4.56270871735440
H         0.92907410549452   -2.35060197405793    4.19701474905332
O         1.21866019127223   -0.46844494046531    3.39442747819155
C         1.68317257257276   -0.79420333346623    2.14442310135942
C         2.30047862527174   -1.99276909286359    1.82775408975058
H         2.45954790363558   -2.74534694157178    2.58217657420305
C         2.73565473821560   -2.24326094790798    0.53457965354189
H         3.21784321047876   -3.18190704268635    0.31144803453429
C         2.55456638327835   -1.29720915106442   -0.44938707009611
H         2.89092381984749   -1.48259483251768   -1.45728914563052
C         1.94067433025926   -0.09015156665994   -0.14852806626953
H         1.81503049937025    0.63639530046036   -0.93413024755239

