74
CSD_code = TORPAT | q = 0 | S = 0 | Stoichiometry = C36H30AgBF4P2 | MND = 4
Ag        9.75037596255922   16.87605277600055    0.38472433428259
B         9.72450265935873   19.89187527695609    0.39323550886960
F         9.77478658142047   19.01073217214612   -0.72986567703378
F         9.70831153206683   19.00342635779282    1.51280805443056
F        10.84882741909440   20.64993391072819    0.43151998885410
F         8.56957776102394   20.60347256082175    0.35937214187965
P         7.67715409418109   15.47985136836727    0.17977692410915
P        11.83694911044922   15.50074448013174    0.59622346702030
C         7.08949276785244   14.30593272719330    1.43803157256072
C         7.94452158294624   13.26844450984345    1.80695407204831
H         8.88913190766488   13.14989972323963    1.29201988456977
C         7.59063110466996   12.40039104196367    2.82054887694627
H         8.25657163796078   11.59570961191384    3.09529334593299
C         6.38707724362074   12.56984964361499    3.48775835100089
H         6.11028264690727   11.89305815265269    4.28227366247951
C         5.54402094304532   13.61235879293480    3.14066876577563
H         4.61101519133679   13.75037008335707    3.66694422526456
C         5.89303925411537   14.48404266331422    2.12391102742680
H         5.23848792166195   15.30305206846119    1.86098076114243
C         8.02878105365924   14.40492815541642   -1.25275304643849
C         8.85067631764607   14.94979858355089   -2.23678354565834
H         9.23846566407168   15.95954780205649   -2.10518817025096
C         9.17289090250305   14.21841592656559   -3.36336458118812
H         9.81393585123391   14.64503880772544   -4.11985372576085
C         8.67819042480670   12.93227668192585   -3.51377938278077
H         8.93317814383594   12.35540369417554   -4.39027211273005
C         7.85985935600869   12.38558037917713   -2.53939480911408
H         7.47430000843211   11.38318434710160   -2.65719787503088
C         7.53114846846472   13.11683924962391   -1.41093758250376
H         6.90102409749302   12.68011720435551   -0.64860875947577
C         6.16885714650756   16.32652750094647   -0.38675473617712
C         6.13887169552169   17.71611273140472   -0.33164153469709
H         6.99091521390095   18.26367391983641    0.05229185322945
C         5.01882888337983   18.40001018118843   -0.77189486651309
H         5.00219608462164   19.47816040923066   -0.72809365280914
C         3.93222411020183   17.69998825158918   -1.26841203392377
H         3.05827535286753   18.23260613720866   -1.61325938509333
C         3.96286103102376   16.31414279854297   -1.32921080898280
H         3.11474167116761   15.77153816337763   -1.72112418167559
C         5.07763533023160   15.62418227542306   -0.89304526361217
H         5.10760304589590   14.54433707977806   -0.94338386730054
C        11.49368841117714   14.43744779160852    2.03950937156163
C        12.00342509787864   13.15582567923738    2.21125367377553
H        12.63732410591835   12.71693024045343    1.45332665240606
C        11.68197977983315   12.43358951347177    3.34753220057371
H        12.07702430621367   11.43618414846498    3.47580792936702
C        10.85897869143541   12.98302741133154    4.31644211818393
H        10.60990114965466   12.41325042307074    5.19924859764611
C        10.35230333603271   14.26282287764922    4.15254609764365
H         9.70774394504525   14.69162910264425    4.90479196332191
C        10.66724673180289   14.98521535912128    3.01807996229367
H        10.27021192423247   15.99008109998901    2.87638202491836
C        13.33726353157207   16.36426544158223    1.15871278873892
C        13.35049960019082   17.75418976356469    1.10650876656786
H        12.49110719215829   18.29195136750015    0.72500308549920
C        14.46288273076561   18.45060673837339    1.54657087457394
H        14.46664586369157   19.52898569585822    1.50530035919607
C        15.55864812509783   17.76264139589022    2.03978690563413
H        16.42666685267546   18.30500393020263    2.38439413478716
C        15.54477899121760   16.37641079271192    2.09761832491286
H        16.39995150565622   15.84319378942237    2.48705932375009
C        14.43760247952710   15.67406287566279    1.66192422147167
H        14.42063730916879   14.59385716718966    1.71025750675721
C        12.43525315856627   14.31856866529879   -0.64922826161786
C        11.58981476417435   13.26901872141569   -1.00594632035671
H        10.64612185066456   13.14813234833485   -0.48987715534193
C        11.95210039496011   12.39191529955875   -2.00871075909073
H        11.29378613637973   11.57776372282069   -2.27375304849669
C        13.15442794479602   12.56415115067295   -2.67744410711768
H        13.43794211463813   11.88000099849769   -3.46323130532491
C        13.98748510398588   13.61880023516425   -2.34316218103574
H        14.91932512502344   13.75904756720744   -2.87092022097878
C        13.63000381846716   14.49962970172906   -1.33725967216907
H        14.27681075222241   15.32789078234920   -1.08434107088138

