70
CSD_code = TORYUU | q = 0 | S = 0 | Stoichiometry = C36H29N2OPPd | MND = 4
Pd        7.12457691273332   19.10498900504620    1.97347165941717
P         7.84423035798984   19.48204113023243    4.03399342795860
O         6.60974052880256   21.19309932987271    2.07097481354859
N         6.34087195012112   18.87895856963085    0.09343529341621
N         6.66947810376751   23.17610333037982    3.17824711421427
C         5.79040266764756   19.80235763186362   -0.66087431384416
C         4.90857658678983   19.48414509737039   -1.70583313229145
C         4.58318992069500   18.17396038700553   -1.94137131399980
C         5.13601951769019   17.16480032841044   -1.12535771251310
C         6.04606602895697   17.57248116695361   -0.11895943687861
C         4.79366452777331   15.79955889099254   -1.20096095961624
C         5.31778090920296   14.91170701215431   -0.29829355616321
C         6.23749763640791   15.31665520572298    0.67819106975269
C         6.64621126833178   16.63079094343513    0.76396703666150
C         7.67452000532684   17.15722348599885    1.69025955946062
C         6.93517945245977   21.79425250885383    3.14708423507650
C         7.48588534865641   21.19268769458568    4.26018459486876
C         5.65148789254273   23.69460046445291    2.36648871992221
C         4.47793205141336   22.97093782971045    2.16023873482190
C         3.48417834267623   23.47636258851143    1.34483481317391
C         3.63296108742268   24.71199915384804    0.73675206824945
C         4.79395544674547   25.43791361044223    0.94526985754611
C         5.80034390698288   24.93443946550586    1.74650354093533
C         7.47438286337864   24.04422697384890    3.92600742794864
C         6.89898411957819   25.11386719264916    4.61124682922037
C         7.68938334707922   25.97792009396406    5.34431395461788
C         9.05985227355819   25.78862651751282    5.41171454171789
C         9.63665584341418   24.72786166714187    4.73210713987926
C         8.85559601391461   23.86373538313650    3.98991921620854
C         7.19770195711230   18.59634329429137    5.48145710574068
C         7.51249555366275   18.95357261153188    6.78774825322102
C         6.93419325784651   18.27393239405592    7.84469009578978
C         6.03156827737752   17.24990416110050    7.60368024490215
C         5.69238186513870   16.91140413202389    6.30332200943835
C         6.27173733626116   17.58544290799397    5.24370441187715
C         9.66573154484921   19.31735548072009    4.03761428846414
C        10.24995215793831   19.71698140475767    2.83410011617719
C        11.62204244127126   19.70234557052810    2.68519841179917
C        12.42303117520152   19.27859317887761    3.73683251787852
C        11.84721330755427   18.86439915470491    4.92513904595407
C        10.47011603217130   18.88201502313990    5.08031203529823
H         6.04054012076017   20.83351227542198   -0.43562550352274
H         4.49049334052485   20.27944096747909   -2.30311769672957
H         3.89501830097638   17.90115545750144   -2.72886134057777
H         4.09189491827299   15.47670991156966   -1.95541869040098
H         5.02968253331067   13.87130012808765   -0.34275304633866
H         6.63952985219298   14.58515100619691    1.36430208417708
H         7.87458195174400   16.46381455061747    2.51405725534069
H         8.61864678003741   17.31586995552087    1.13313599344143
H         7.70619850378717   21.71893599884644    5.17533707416275
H         4.35317904552466   22.00993584150211    2.63619806111635
H         2.58036662860681   22.90403241343888    1.19106541205927
H         2.85079227729297   25.10624663505575    0.10492605768453
H         4.92267379962372   26.40065486135666    0.47166081663147
H         6.71051493946097   25.49772833159324    1.89380338270086
H         5.82958049842226   25.25889634826331    4.56262202882798
H         7.23051836008824   26.80118412786399    5.87240924957168
H         9.67437355801473   26.46393289143841    5.98798843348195
H        10.70577512258148   24.57700656479688    4.77183510982741
H         9.30869755645638   23.04224540179959    3.45466475705179
H         8.19902793085021   19.76849727189804    6.97065602843062
H         7.18218969945482   18.54547552411816    8.86078385205438
H         5.58331467409851   16.72231854611887    8.43292076018513
H         4.97477783149596   16.12483705637722    6.11980288986818
H         6.01303658160458   17.34922327104258    4.21295041026775
H         9.59346565200797   20.03490369607008    2.01326269145025
H        12.07397977877919   20.01288486854936    1.75417420034417
H        13.49714206852180   19.26442826618649    3.62395296135410
H        12.47355856917645   18.52406312387581    5.73722022636555
H        10.02417930787585   18.54372273444803    6.00429278132307

