63
CSD_code = TOSPAU | q = 0 | S = 0 | Stoichiometry = C22H30NiO4P2S4 | MND = 4
Ni        0.01040927886501    0.00284388030217    0.00735106934226
S        -0.77824525679150    2.15114746699138   -0.78348015622617
P         1.09871181866411    1.76282456715326   -1.33553230054429
S         2.12600093730453    0.95511876244594    0.18842235770684
O         1.85459035111955    3.10023070590747   -1.84107766355348
O         0.67766629839743   -1.61551137208185   -6.21203738327586
C         1.07530061274630    0.72577574591340   -2.83336140773009
C         1.25071815972112    1.25744220408579   -4.10544586996183
H         1.48128612523202    2.30634067435723   -4.21980801112922
C         1.11614501023651    0.44292889775310   -5.20705750075291
H         1.24728429711139    0.83052707058941   -6.20518675446046
C         0.78929945998765   -0.90924823183382   -5.05982516196779
C         0.60323502807109   -1.43447530066113   -3.78261895781989
H         0.34802570025954   -2.47124933118556   -3.63337989396773
C         0.74309514369080   -0.61250073850456   -2.68098719535813
H         0.61695328866933   -1.05051310397797   -1.66581080922578
C         0.31949343609203   -2.97589846746566   -6.13853276115752
H         1.06750902229708   -3.55892971491913   -5.59235557328403
H         0.27456588985252   -3.32369921676202   -7.16927694729804
H        -0.66021780071723   -3.10709855748011   -5.66916253587436
C         2.97757556704101    3.61670989100796   -1.14141634281387
H         2.81526332867698    4.68807409939116   -0.99823295730285
H         2.98538238346569    3.11376458087764   -0.13897326738649
C         4.25680330720319    3.31953040321286   -1.80462722895284
C         5.37347798741085    4.28644126157160   -1.75185402730318
H         6.19896313765559    3.88745533573276   -1.15612518534853
H         5.06409205534321    5.23716983281405   -1.32746146096258
H         5.77144138790798    4.45916287584487   -2.75397689196580
C         4.46926033642664    1.95518590967079   -2.31860644210364
H         4.21998643491824    1.23070244386566   -1.53129719305800
H         5.49411457423815    1.80329397010386   -2.64420447555150
H         3.79541654306050    1.73066454715953   -3.14963946552275
S         0.79377516150657   -2.14222002526796    0.80657738094485
P        -1.08697161148696   -1.75578804029683    1.34765715307808
S        -2.10342879597283   -0.94896974922093   -0.18427201507934
O        -1.84445475001748   -3.09369529610702    1.84934535836889
O        -0.71268552949840    1.62285593186408    6.22804253845231
C        -1.07529329333750   -0.71972439561972    2.84619021360110
C        -1.27496912454508   -1.24832499793242    4.11597240838454
H        -1.51546957019196   -2.29515929192447    4.22817184344152
C        -1.15113397150742   -0.43347318242435    5.21861751002880
H        -1.30089767024792   -0.81884528793706    6.21498079073820
C        -0.81168437497731    0.91599284869177    5.07508642364828
C        -0.60127551691312    1.43806192334255    3.80035632806429
H        -0.33565340721279    2.47259452924673    3.65388549900622
C        -0.73006262418001    0.61563650902405    2.69783680030615
H        -0.58261394689022    1.05103717858184    1.68432278200164
C        -0.34362542646860    2.98056925526235    6.15841931987142
H        -1.07864552508514    3.56811131975367    5.59959670193637
H        -0.31260211807394    3.32956225212763    7.18926634545110
H         0.64435340609259    3.10406536208206    5.70453775630756
C        -2.95473523134405   -3.61933273766371    1.13634259765762
H        -2.78415526520799   -4.69017311129631    0.99848366554741
H        -2.95285256017036   -3.11926496533272    0.13259938735612
C        -4.24420414702035   -3.32787965023168    1.78252970521136
C        -5.35392521291170   -4.30226659512074    1.71974664072290
H        -6.17472026201647   -3.91054527021399    1.11247325928803
H        -5.03330698465854   -5.25316669170307    1.30280624652687
H        -5.76309572826170   -4.47382166537453    2.71818312988834
C        -4.47160975268500   -1.96299883643166    2.28859588120985
H        -4.21829193748479   -1.24002700027906    1.50097507643394
H        -5.50101414388918   -1.81678475133355    2.60227030309809
H        -3.80835392937664   -1.73023666017851    3.12598136311598

