74
CSD_code = TOSRIE | q = 1 | S = 0 | Stoichiometry = C26H36N3NiO8(1+) | MND = 6
Ni        8.91948095103699    8.96955803397823    9.20528792951681
C         9.81205387457288    6.70355095619791   10.40212894429933
N         8.98824680240968    7.67841162799904   10.45574899343395
O         8.10346862995740    7.70083078404911   11.50484853807969
H         7.85156872279436    8.64181767369925   11.63705724191667
C         9.84739043558336    5.67576462617395   11.46369619420144
C         9.16695713943465    4.47414017255481   11.30005629048169
H         8.60748555138908    4.28837831209951   10.39611634387127
C         9.19655004066792    3.52583719768995   12.30706767458858
H         8.66670956332512    2.59521782879000   12.17633537912691
C         9.89602015087111    3.77120340882438   13.47666653913962
H         9.91536154614065    3.02957375957691   14.25960223415933
C        10.56031687773240    4.97444657612152   13.64548584156963
H        11.09747505064995    5.17480787450673   14.55935064282421
C        10.53277697487618    5.93118374457568   12.64680642140063
H        11.03854720725841    6.87515668444721   12.78321343513247
C        10.80710224310818    6.67644338148700    9.26343148517843
O        10.45972845149607    7.68392917139108    8.30397363228079
C        10.85296462307610    5.29482978159775    8.59947538143828
H        11.04479596396327    4.54591645333564    9.36853976561591
H         9.87905756206301    5.07901676314438    8.15134024734943
C        11.95487200181368    5.22080004238173    7.54339361062578
H        11.75134338203104    5.92140615712352    6.73012938329393
H        11.97103221348761    4.21672269870788    7.11942901074478
C        13.30716151620903    5.55253198826962    8.16542267100214
H        13.54225676047009    4.82293671453863    8.94241494321725
H        14.08717006812610    5.49760779200395    7.40619897200445
C        13.26906554297049    6.95196687524076    8.76882288627476
H        14.23224151313248    7.19666989479361    9.21652220664061
H        13.06907636047830    7.68021760053969    7.98125029687521
C        12.18668062429533    7.04929631487717    9.84042036874362
H        12.12496333343934    8.06830373375670   10.22546856753292
H        12.41917549673699    6.37115586462959   10.66131595660604
C         9.86481004440286   11.20259353611018    7.93762652781738
N         8.99487867774970   10.26865912317019    7.97771340306042
O         8.08898608668772   10.17365638677372    6.93712121494217
H         7.20801144557340   10.06738738049234    7.36324407322398
C         9.88934604985060   12.17846132049505    6.82937569023436
C         9.25615674854529   13.40960685662563    6.96600310144955
H         8.74024956358187   13.65624354464943    7.88165814267032
C         9.27545009312462   14.31081942595367    5.91628769945741
H         8.78281116828315   15.26432604577672    6.02657042728088
C         9.91878980799394   13.98974823291081    4.73275570922876
H         9.93250599614959   14.69599501847535    3.91775510046297
C        10.53496918298530   12.75736172685714    4.59234815097310
H        11.02862323531951   12.49906117443857    3.66857111446435
C        10.51573249520868   11.84586865288735    5.63263119364034
H        10.98447691059221   10.87999371875550    5.52120804705726
C        10.90422166985393   11.25111928572560    9.03773002066420
O        10.59920691239543   10.26432124980755   10.02651611904520
C        10.96332327115066   12.64873216698119    9.66890097510930
H        11.12799853253515   13.38400008630642    8.88060352325350
H        10.00488837238242   12.86908357956337   10.14722829128130
C        12.09800867859485   12.74319563511249   10.68821961996216
H        12.12331952015776   13.75468934423519   11.09342610556831
H        11.92034785634723   12.05705573139409   11.51919448148642
C        13.43190002142550   12.40420462719075   10.03165800633559
H        14.23373968932435   12.47321199659530   10.76646427334701
H        13.64212896736544   13.12162156764260    9.23621057019957
C        13.38006042687251   10.99511939432157    9.45175278097933
H        13.20622138984572   10.27726749251649   10.25470570057358
H        14.32931320327966   10.74713228950861    8.97689107133911
C        12.26507861814073   10.88000378726280    8.41633141207986
H        12.19776740916547    9.85711309327322    8.04371757272741
H        12.46556716112182   11.55135425279514    7.58134876367773
O         7.72600213768808    7.40296426515122    7.86876260817495
N         6.73115911856328   10.37279778084981   10.13120685343040
O         7.84593375978396   10.29794073380742   10.72440798749546
O         5.86423671605173   11.09061946214215   10.51283610774175
O         6.62035620730052    9.64347152518140    9.12287389403511
H        10.00592953509462    7.24140872760031    7.57172609177329
H        10.16597496497283   10.70797608417259   10.77239552481430
H         7.50293715535768    7.79297771206282    7.01522599351212
H         6.88778402356747    7.28990549531669    8.33337802627751

