46
CSD_code = TOSVII | q = 0 | S = 0 | Stoichiometry = C14H20N2NiO9 | MND = 6
Ni        2.09906469055876   20.85131455450265   -1.06489185712314
O        -0.02262976959271   20.76945380064258   -1.97366514832705
H         0.17719116351893   20.10390398203105   -2.64094858564646
H        -0.11425044391029   21.61154811858238   -2.42625411909781
O         3.88552726547073   21.39423504700994   -2.47494611911148
H         3.94163615331744   22.35285219961938   -2.45669087692538
H         4.54252506487923   21.06367963406464   -1.85130348945119
O         2.32852910416010   18.97083466256813   -2.35820951544607
H         2.82863108297514   19.44986844418598   -3.02993479585648
H         2.98243635428012   18.52518888703524   -1.81039538550018
O         1.01656962992545   19.46961909716545    0.50063333893587
H         0.76414001906623   18.82651912734505   -0.17079788506820
H         0.27501738480773   20.08132046854321    0.56556955018089
O         3.87425041824121   20.05412454480013    0.26202288142245
H         4.01498647899342   20.81180467145620    0.83618315069475
H         3.24578294860876   19.48473828363676    0.72429803375780
O         3.11456757067352   31.49025580919061   -2.48191076734353
O         1.42127038247742   32.90084885055755   -1.95747988851696
O         1.24295869037182   30.84364503959901    4.16026740869614
H         1.21743925609587   31.36337853333834    4.97864100812379
O         1.60455112761429   32.85899906822902    3.28471564045835
N         1.86163251225509   22.77012273213867   -0.24081927719218
N         1.18876417179444   27.66968155837083    0.24850090990915
C         1.76232357298952   23.82873371992364   -1.04662167071066
H         1.85550641657113   23.63683859110867   -2.10936909655988
C         1.55448365727035   25.11460424501967   -0.59090325712526
H         1.48177765003245   25.95341886790029   -1.26296802747623
C         1.43923912370534   25.34188298244048    0.77604926659927
C         1.52590159807730   24.23578031911523    1.61619543734822
H         1.43616049936471   24.34808411782880    2.68629049561756
C         1.73396924867206   22.98491357853571    1.06863943632179
H         1.79965746736984   22.11336028012524    1.70814720430946
C         1.24071804066168   26.72881661285809    1.31469916236950
H         0.29622073118752   26.74100615254327    1.88609188704550
H         2.04410164352543   26.94044441456148    2.04185685064067
C         1.35336238307759   28.95315869281199    0.46159629069720
C         1.71162832381560   29.75230998745927   -0.67400544732197
H         1.92055492652243   29.25037406635853   -1.60421360513122
C         1.85435914856073   31.09827000848275   -0.54012607744921
C         1.72460166218853   31.75698814589679    0.66416890558528
H         1.74950542376735   32.83169706051508    0.73857521064404
C         1.53163262929658   30.97837084251871    1.81760645900734
C         1.30215746362942   29.62135430960928    1.71814975513941
H         1.00602720332412   29.07149403444105    2.59845899738912
C         1.46401225600852   31.67389016850203    3.12017235424241
C         2.18400767376776   31.96207168680351   -1.86267474272772

