54
CSD_code = TOSXUU | q = 0 | S = 0 | Stoichiometry = C22H24BrN3O3Pt | MND = 6
Pt       -1.24752156764644    2.89048517118502    1.27900588520501
Br       -0.11045125387908    0.96793703497290    2.52022146086230
N        -2.30343141544225    5.68371915547138    1.17605208998923
H        -1.51899905704568    6.32258572638315    1.20610487748954
N         0.15185555809285    4.29571886226671    2.32189635164150
N         0.63364112437503    2.83505565189424    0.07258624014292
C        -2.39177098407939    1.65625090850074    0.08883061755444
H        -2.20187620314008    1.93747722942870   -0.95046299452750
H        -3.46183409368124    1.73841125576024    0.27306055006992
H        -2.09078294998111    0.61899127572771    0.25016413625957
O        -4.54112282998398    5.45800344114924    1.36603965082893
O        -0.16568323193380    5.71865009535853   -0.46617079630977
O        -1.13756574867828    4.20308331688946   -1.82050782603261
C        -2.80288737279908    2.82148224625299    2.62833271732556
H        -2.38873338027318    3.13166784514199    3.59192985421557
H        -3.16946631045022    1.80038107141249    2.73800584238673
H        -3.63416746285622    3.46935568467571    2.35919136339539
C        -0.15875245887401    4.49185807061632   -2.80373453435789
H        -0.29210304518762    3.75655253227908   -3.59325224499435
H         0.84794968699659    4.42527052383000   -2.38393225841659
H        -0.30561701067101    5.50070056297922   -3.19632750613077
C        -1.04527708875469    4.89874947541838   -0.67044845575747
C        -2.11139680853899    4.57449397519247    0.29782848548449
H        -3.05523234473396    4.30090581453012   -0.17874942674806
C        -3.53151780358286    6.10189926779533    1.58594352958935
C        -3.55991104189704    7.39210138400046    2.33338017107733
C        -2.44110229997583    7.98296776644631    2.91426144856853
H        -1.47068117887804    7.51109297894972    2.85814952812483
C        -2.56290283147173    9.18082435738218    3.59548159213800
H        -1.69031500515568    9.63082846643312    4.04690604967878
C        -3.79485830287293    9.80523332497206    3.70152202834660
H        -3.88093878288607   10.74221223991797    4.23165265330783
C        -4.91403373422465    9.22156535389435    3.13111241198898
H        -5.87740027303853    9.70201455225971    3.21493545826020
C        -4.79699076337252    8.02143289580243    2.45682651896124
H        -5.65711718714654    7.54434943153961    2.01181179789286
C        -0.15509624836916    5.07703550819236    3.34640900137011
H        -1.09196579462619    4.86971802918531    3.84622591116772
C         0.65794746464737    6.11197988245971    3.77489798019987
H         0.37305783673145    6.71002711281491    4.62591109622379
C         1.82694527695007    6.36403864205057    3.07255869135387
H         2.47249539881400    7.18388432578808    3.34946463863030
C         2.15428839296470    5.54390407401443    2.00997199592979
H         3.04642002972607    5.73095931020015    1.43563746035577
C         1.30362695053087    4.49197857490410    1.66934633820554
C         1.64031579587860    3.53788265687771    0.60266522762207
C         2.95719121947739    3.33170825222360    0.19185524548893
H         3.76521605983663    3.87278022252851    0.65614594731265
C         3.22181871461587    2.39625884161198   -0.79090152629592
H         4.23579106772499    2.21785131005441   -1.11524664287193
C         2.16502621767930    1.68589940084912   -1.33920707071915
H         2.32462882146478    0.94388574631261   -2.10441719970066
C         0.88865789343103    1.93815461741742   -0.86813526081432
H         0.03653035621533    1.39884454581253   -1.25802910096855

