86
CSD_code = TOSZEG | q = 1 | S = 0 | Stoichiometry = C42H38CoO2P2S(1+) | MND = 5
Co        4.76024139788454    6.30666050116809   12.68357920153412
S         6.73681690262767    5.04790790302813   12.69353672014597
P         3.84268327552430    4.30950164937704   12.77531492804906
P         4.43621459192178    6.44533889845754   14.85722103659007
O         3.40672958833284    7.20144977495707   11.78078077989261
O         5.69894676298433    7.85748098727504   12.49143746107127
C         4.78872524509309    3.18223090800398   13.91093259582350
H         4.07266270144565    2.49072956997120   14.36353762158775
H         5.44989732000440    2.59172274676999   13.26757640245169
C         4.82386032251985    4.89502883725150   15.78830528259456
H         5.35581838223745    5.16341309693661   16.70506143359939
H         3.86164755357915    4.46494629891645   16.07921581799775
C         6.93264726605400    4.43893712013968   14.46281628711136
H         7.70530985762632    3.67454102506556   14.38786898992472
H         7.30131129772577    5.26157683942280   15.07101081973472
C         5.63571719977601    3.84039255501010   15.02021693132864
C         6.02414068871596    2.73792252516876   16.02029283682415
H         5.14625435243562    2.35936954461899   16.53920404688928
H         6.71931038419964    3.12117006874378   16.76406414972119
H         6.50094572726041    1.90643901237389   15.50690695584271
C         3.41827574460454    2.13997685110623   11.07440074106094
H         2.91554731363246    1.68289455657499   11.91576624124014
C         3.52086747838941    1.47039833683827    9.86999643278424
H         3.10349292241948    0.48011238271678    9.76908997186532
C         4.15492792153655    2.07002117611564    8.79168019611867
H         4.23012194393557    1.54276263429489    7.85314392221708
C         4.68561193469523    3.34375649432976    8.91319297457295
H         5.17315237301900    3.81041493984151    8.07100654360230
C         4.58760930929139    4.02055798220940   10.11618921754048
H         4.99346221457670    5.02213702869097   10.21920364472314
C         3.95855256531717    3.41789517088236   11.19930025747552
C         1.20647379674804    4.57202368588484   12.19851155424177
H         1.61159067689560    4.95043132466361   11.26923832679461
C        -0.15686364814770    4.54079711374575   12.41309258351406
H        -0.83222519821664    4.88308973807908   11.64385430371435
C        -0.65679932743052    4.07138826242407   13.61851919168419
H        -1.72184259408358    4.04800684976840   13.79007412446365
C         0.21055913349031    3.63111718106765   14.60315700292929
H        -0.17754781851418    3.26504196437086   15.54167001656958
C         1.57833680184522    3.65733703772102   14.39225747384605
H         2.23477076460113    3.30523422988200   15.17488225115941
C         2.08466516048293    4.12124186600365   13.18450499326146
C         2.43360020882338    6.74080895379435   16.73882811631379
H         3.22568103633408    6.57405185380967   17.45610645682302
C         1.13883204317328    6.94933886517676   17.17292130180193
H         0.91931280967428    6.93483682862821   18.22966163515953
C         0.12559334344691    7.18079008577446   16.25491750564678
H        -0.88467174319919    7.34035785398246   16.59871326585271
C         0.41173271507191    7.21727464834238   14.90126208699778
H        -0.37304814676555    7.40810087269538   14.18569996880598
C         1.70654687542468    7.00804824377019   14.45859650783637
H         1.92993286226873    7.03261830273034   13.40252111967718
C         2.71878036514937    6.75584918397607   15.37427470605398
C         4.81480449482732    9.08723492594285   15.35601799379570
H         3.96842410838934    9.17759898037236   14.68652501360985
C         5.42113723249037   10.21467277868823   15.87240255762974
H         5.05282972415280   11.19293515837045   15.60441521855124
C         6.50175084740031   10.08705292475876   16.73245746369954
H         6.97695823204198   10.96733227539548   17.13688546065443
C         6.97165476326715    8.82989993980347   17.07225955161643
H         7.81053710191559    8.72723568622201   17.74428497786073
C         6.37510484705497    7.69506017054511   16.54837505655257
H         6.77013544724516    6.72530653290783   16.81826694609217
C         5.28572828287663    7.81726286466057   15.69305419477257
C         7.68464128096551    6.20253769170249   12.05644791988476
C         8.57777046664591    7.66459051737324   13.83368341643032
H         7.63735368975062    7.59901594476517   14.35992761622773
C         9.57257583962109    8.50399631021778   14.28849075334058
H         9.42123354308686    9.06165648536593   15.20135650051071
C        10.76277187944403    8.62153198764066   13.58665876011914
H        11.54759703764265    9.26328764973729   13.95638007212782
C        10.93728966903218    7.92285685427946   12.39950630612962
H        11.86062440384331    8.01946224950802   11.84896625221723
C         9.92672254611106    7.12729552393480   11.90395977784257
H        10.05102609578919    6.58980513192018   10.97663306783640
C         8.73571886454129    6.96163369139770   12.63032168361216
C         3.66416625852111    8.46936649216158   11.64475662849429
C         2.75015984086773    9.45527629738761   11.23871941246138
H         1.74010276079100    9.17675612401041   10.98167399919658
C         3.19937496627083   10.74712593827072   11.11962548098412
H         2.52492147391609   11.51459367865797   10.77226715316353
C         4.52413829450761   11.09860785263330   11.43109821402894
H         4.82925612138874   12.12789153380006   11.32087606100285
C         5.43065578293097   10.16782940241529   11.87352398295007
H         6.44974867121987   10.42626127847560   12.11504288878738
C         5.00437277501161    8.83585676413444   11.99812468275611

