74
CSD_code = TOSZUW | q = 0 | S = 0 | Stoichiometry = C35H33CoP2S3 | MND = 5
Co       -5.28251067196885   12.99932932769681   11.90444408994206
S        -4.66232085842459   12.83969374861526    9.69139198806082
S        -6.08304957596945   14.99017608821813   11.45442434606574
S        -6.48742179485164   12.92964173553377   13.71105670674192
P        -3.25686402929564   13.72399043703719   11.65259806248810
P        -4.72566940660563   10.92108227902862   12.23529500240618
C        -1.97856338724861   12.56272314773645   10.97307406540267
H        -1.49114446820984   13.07969297870813   10.14039753099391
H        -1.23356436840367   12.39693228294327   11.75629344140752
C        -3.05836200330351   10.38452818061716   11.64937377186096
H        -2.36811436485076   10.44185779311976   12.49528342033928
H        -3.13941541849547    9.33534583139294   11.34661787818410
C        -3.57641281408765   11.41192247637367    9.40800284943843
H        -4.19326137250823   10.51554845872643    9.31358677096772
H        -3.10783334555393   11.61538836345191    8.44336671551858
C        -2.50420369290071   11.21183372766896   10.48297410331010
C        -1.33658546792708   10.43038995763849    9.86371381798629
H        -0.59042698734204   10.19587689689239   10.62048424186027
H        -0.85723948692435   11.00970020266945    9.07745150969266
H        -1.69302542451765    9.49817640826715    9.43009053566509
C        -3.11696881002715   13.90627335429945   14.47666483474570
H        -4.13809512471562   13.54504334564233   14.46982272107836
C        -2.48042566912897   14.17313246380585   15.67763601827738
H        -3.00618065095994   14.01678284669800   16.60802908819433
C        -1.17777545842168   14.63918896829383   15.68095436440924
H        -0.67866980151777   14.84932944591028   16.61558924925141
C        -0.51213830061510   14.84447298957342   14.48108062689875
H         0.50196708127373   15.21761057001847   14.48202054165728
C        -1.14444352607053   14.57667978729766   13.28271314211229
H        -0.63155332825391   14.74936491990530   12.34494074335207
C        -2.45335084192534   14.09881898313973   13.27564195657059
C        -2.61513202434835   15.39281357100161    9.46807012665590
H        -2.54219315422344   14.49977244542989    8.86411829435293
C        -2.41926607183709   16.63127146398252    8.88327978096291
H        -2.16475931336661   16.69307176145250    7.83514221547258
C        -2.56205783351247   17.78674039211549    9.63175951009124
H        -2.41512971427321   18.75180674769753    9.16950905863330
C        -2.91144551843422   17.70429465103190   10.97036071327348
H        -3.04418438575258   18.60422665739862   11.55275036965578
C        -3.10136426537383   16.47045830049074   11.56036414898624
H        -3.39373337486536   16.40168321586446   12.59981806422792
C        -2.93997939565206   15.30515794322261   10.81537475715723
C        -6.93138367449165   10.32778667035294   10.68377993260432
H        -7.06438004660213   11.40607858713178   10.67086364925615
C        -7.81794148059894    9.50208368285836   10.01565595369283
H        -8.65042782888466    9.92917959622724    9.47669086645764
C        -7.63535909106702    8.12992976284451   10.04228985280449
H        -8.32613429131326    7.48221018025837    9.52282107395871
C        -6.57014957101670    7.58201942529854   10.74193340450064
H        -6.43691728600894    6.51012948558165   10.77045303964547
C        -5.68011275597002    8.40277428508946   11.40797526551054
H        -4.86078797724924    7.97323704826707   11.96981625941637
C        -5.85415729367643    9.78430984402003   11.37391866030154
C        -5.83028572460054    9.58735385338059   14.43144681103682
H        -6.66400695082543    9.36635581798594   13.78030638402300
C        -5.86402574423722    9.19375757022192   15.75649442637129
H        -6.72111427674812    8.65470126709060   16.13274688454704
C        -4.81112908117899    9.49937473837736   16.60240095462068
H        -4.84237584214491    9.19447744591174   17.63801711929842
C        -3.72616534381760   10.21420586905862   16.12202387238420
H        -2.91220797278661   10.47531513592051   16.78290918696068
C        -3.68691808804065   10.60741111581114   14.79805908529125
H        -2.85150729098884   11.19548169332610   14.44169559005709
C        -4.72770914334995   10.27557465728930   13.93461087026593
C        -7.01414103397974   15.44223776414437   12.84918508944541
C        -7.57172075295248   16.71467337741200   12.96307154644249
H        -7.40843860825097   17.42726973004534   12.16876050994851
C        -8.32554938081745   17.03428210713522   14.07100998947477
H        -8.76353201309687   18.01800095630075   14.15569294018740
C        -8.52732832003439   16.09740701691328   15.08147142973783
H        -9.12060072315002   16.35708250684162   15.94581896338143
C        -7.97222732616714   14.83956342244909   14.98494987871761
H        -8.11668338752020   14.09995231061909   15.75840967716643
C        -7.21461327732588   14.50625792925549   13.86595965809306

