39
CSD_code = TOTNUL | q = 0 | S = 0 | Stoichiometry = C18H14CrO5S | MND = 9
Cr       -0.01885350278220   -0.44491440483477    5.99735131642461
C         1.79755962504717    0.67671955602952    5.13887547946914
C         1.91369608494062    0.69802061971065    6.53580118308051
C         1.87868952906013   -0.50760222481041    7.26577364321532
C         1.77887637838648   -1.73819425938566    6.61888595929938
C         1.61350767380808   -1.75828782632778    5.22429444455804
C         1.63879222221586   -0.57080153274432    4.48419835839189
O         1.85793681330556    1.77731663099526    4.34451712224118
C         1.67137279585537    3.04538744748627    4.94112735735216
C         1.33603847149215   -0.63306030247187    3.02176826238439
S         2.60958119204824   -1.66033550764411    2.14680121858478
C         1.73793137104393   -1.89372795512498    0.62543481049303
C         0.38134526930491   -1.61905786247337    0.48592797074384
C        -0.47768997566912   -1.09642480637530    1.61028140764400
O         0.08719506003918   -1.22916189075177    2.89441331396668
C        -0.20991496984698   -1.82582429204319   -0.75622366791209
C         0.51747741107451   -2.30511926891124   -1.82761529999507
C         1.86514113028230   -2.59368601259267   -1.67050427421519
C         2.47208873000013   -2.38662207431984   -0.45017420246362
C        -1.09350068524970   -0.01203231595433    7.40655165935151
O        -1.83247943020183    0.26306106475085    8.25224055962460
C        -1.16035200274060    0.61026748574774    5.05515531737971
O        -1.91585367501128    1.23296359353808    4.43980442473701
C        -1.36026989363475   -1.62663510204513    5.64798351876939
O        -2.26388371085850   -2.30286544326752    5.40956120708040
H         2.08787015222512    1.62729118957750    7.06046879622503
H         2.03135364284486   -0.46880686587353    8.33798670536371
H         1.84315491838380   -2.66340081308826    7.17660144673939
H         1.55655189172054   -2.69917903031475    4.69081760151188
H         1.58347145513529    3.74582504265154    4.11274241364974
H         2.52746163325328    3.32948249905221    5.56060916108744
H         0.75309988187457    3.06436863526894    5.53677832978722
H         1.36772686373400    0.36073487245633    2.55565808119701
H        -0.71885879212249   -0.03656284646546    1.42090524962837
H        -1.41529774486497   -1.65536787212324    1.65877010435913
H        -1.26198194143730   -1.60710848926070   -0.86804183163221
H         0.03551717014556   -2.45898151392390   -2.78080588338575
H         2.44171631834387   -2.97482073843027   -2.49945176822553
H         3.52078263885208   -2.59835738570577   -0.30726949651490

