57
CSD_code = TOTQIC | q = 0 | S = 0 | Stoichiometry = C25H24FeO7 | MND = 7
Fe        4.50736273680032    7.42644521947383    1.39343380468386
O         2.14893364521633    5.74143890456984    1.48971875691227
O         5.67975904257091    5.33663381695302    3.04401873156114
O         3.46504686202352    9.31545936152113    3.38302480659324
O         2.09404566537373    7.40515998611195   -1.06326409957386
O         1.79949734325644    9.62642792949542   -0.87196367476651
O         8.14234171943348    7.06921723814103    1.65490098945322
O         5.96447653750959    8.04938935791310    4.07919841170950
C         3.07713517261241    6.40151414893610    1.39347431792101
C         5.25578880361141    6.17543634874168    2.39892932027148
C         3.91018304595665    8.60087926861785    2.62084466061802
C         0.74824029847339    7.28714854010820   -1.49516562659372
C         2.50914609341669    8.65581250939946   -0.76190064565132
C         3.90063272492064    8.67143692872001   -0.27503075567179
C         4.80243317114013    7.65532570240910   -0.74163168552218
C         6.05485456715129    7.56064378805004   -0.13415122200852
C         6.38526056266336    8.46592059870733    0.92870538711100
C         7.56403856826149    8.13995076417285    1.73542730988214
C         8.02627878222907    9.20551938932595    2.71789281060746
C         9.32767701873502    9.84085462363010    2.22438392738920
C        10.00988362612330   10.66058837993015    3.28597224799258
C         9.69221143389563   10.57735647287892    4.57515113301119
C         8.64790767906350    9.62574516244304    5.09618286955867
C         8.29359914556650    8.54333967166486    4.07245054403867
C        11.08023049076239   11.58753615779120    2.78123718487454
C        10.35261639377201   11.42729749248153    5.62468585573406
C         7.06543407933288    7.79078058881766    4.53786468239739
C         7.22280623481838    6.75791272944957    5.58559240416546
C         8.45548517513474    6.31384181918142    6.06404580238624
C         8.51113118435419    5.33862143628403    7.04237909263830
C         7.34621758793060    4.79073989231968    7.55526342835200
C         6.11561962970338    5.22171225875724    7.08564086244479
C         6.05587217645973    6.19606840840280    6.11029129825298
H         0.56234713246442    6.22387427399106   -1.62358396352381
H         0.07260946481707    7.70704730381547   -0.74719509868559
H         0.60202675751846    7.81947211845382   -2.43764752312150
H         4.26146752713834    9.69267072419286   -0.17448580973516
H         4.49352585544237    6.95464344371527   -1.50781660307141
H         6.75865144018604    6.77791730122062   -0.39788254641413
H         6.18664264878685    9.52779403046764    0.81978971016376
H         7.25333916314537    9.96816663502810    2.83565097459935
H        10.00484497144183    9.04645398071299    1.89054875700366
H         9.12197996977498   10.47584332395130    1.35788260526870
H         7.74275493690768   10.18937020947664    5.35045778745359
H         9.00800733170195    9.16312583718983    6.01904400833863
H         9.13019216149892    7.85239411323056    3.95077521259966
H        11.38165301280571   11.30727686474842    1.77505752758433
H        10.71654604130868   12.61530153042021    2.75249641721676
H        11.95644052706108   11.56143128160073    3.42520289860421
H         9.76586279184939   11.42483907004368    6.53999375223125
H        10.46007008910075   12.45499284581855    5.28519129505063
H        11.34745533312829   11.04638857945752    5.85864770999661
H         9.37769456881465    6.71246897611464    5.67218868280716
H         9.47027759991904    4.99916818002599    7.40504754051240
H         7.39872897642758    4.02708296078582    8.31716215580318
H         5.20531393211427    4.79554307217238    7.48019229937232
H         5.10672056889052    6.54647845352416    5.73187928275667

