39
CSD_code = TOTREB | q = 0 | S = 0 | Stoichiometry = C13H21Cl2NPdSe | MND = 4
Pd       -2.76384989597656    1.74919742495708    8.26163007399495
Se       -2.27756259951472    1.32341629588551   10.51105300175759
Cl       -3.21641524063326    2.20740909484382    6.09655112899311
Cl       -1.18907888893447    3.35954336814809    8.28362208593600
N        -4.45043240323939    0.38476892422865    8.36085461590784
C        -1.24094660930117   -0.32886620127025   10.62951127613588
C        -4.46730109366600   -0.34991653594823    9.63064790298889
H        -3.75630901436934   -1.18137816955281    9.55306928031310
H        -5.46992850853579   -0.77567332383822    9.80417564516139
C         0.07726428558662   -2.07663756293572    9.65490654529767
H         0.59359862830751   -2.49293138178690    8.80172277824670
C        -1.17612223893069   -0.97682287887184   11.86688289162460
C        -0.52544777661363   -2.20173491360171   11.95145021902914
H        -0.49152809094652   -2.70436561127111   12.90756843686170
C        -0.55960699205374   -0.85123111739667    9.51946782629437
C         0.08662803148426   -2.77861525027741   10.85252842270786
C        -0.44315180429440   -0.13564851971216    8.20631183474577
H        -1.40180706010423   -0.12764439965757    7.64651903418590
H         0.29240425399557   -0.63342297216338    7.57808292113041
H        -0.11285556264591    0.90080702773818    8.35708734073991
C        -5.57508797407348    1.32401158151580    8.27377141293583
H        -5.48298775300653    2.11156699859424    9.03079142101222
H        -6.53183367306434    0.80136352191841    8.41063643330890
H        -5.55904181810555    1.79382827699793    7.28734801265133
C        -4.06552987870054    0.50276758830467   10.82408619678234
H        -4.03901882615157   -0.10458984221042   11.72824497821543
H        -4.74676823873572    1.34234659581413   10.98287970015761
C         0.77999795346287   -4.10150175916396   10.94739932408445
H         0.39526638669402   -4.78714901233909   10.19408841273566
H         0.64195963519650   -4.54577134367352   11.92942986817811
H         1.84743227397703   -3.97865877706925   10.76883691452365
C        -1.75287078961605   -0.40491908135291   13.12713540746952
H        -1.99242899893403    0.65140729561450   13.01065525842574
H        -1.03036366469405   -0.50708694777292   13.93431933841817
H        -2.65276813167840   -0.94351177069015   13.42424396227724
C        -4.52363067462554   -0.55600630206001    7.24421657171925
H        -4.43075189259804    0.00145081868270    6.31089418053308
H        -5.47495940720838   -1.10242518748609    7.25334418625328
H        -3.70386594775019   -1.27387595114173    7.30633515826045

