51
CSD_code = TOTSAY | q = 0 | S = 0 | Stoichiometry = C17H27NO4PdSe | MND = 4
Pd       16.90509716535067   12.43682775380710   10.99946885861569
Se       18.51241580214213   10.86499386975623   11.47074099303824
O        16.71303677023005   12.97270983377641   12.98593141057844
O        17.69552794415919   11.12481065974586   13.74950763871500
O        15.51730015222438   13.99007009078674   10.61425323799720
O        14.36202174775375   12.26667011947414   11.36433338887835
N        16.97678717777478   11.89256563809798    8.98083806405857
C        19.15132076584666   10.82961664733612    9.54811407322758
H        19.74730097566022   11.71335065400117    9.31886376259132
H        19.76906564132303    9.94741385189082    9.37213491857762
C        17.87771521570896   10.75177193183187    8.72547030849952
H        18.09779707561172   10.68854853463382    7.64866747819292
H        17.35164008667535    9.83515178345036    9.01987443030341
C        17.36859605225935   13.04795232327383    8.16987894128842
H        18.43110195349669   13.25986799936249    8.29378257105869
H        16.79313886196175   13.92112025019328    8.48470138185243
H        17.17873917675981   12.85548654360768    7.10560147837558
C        15.60319119832482   11.50773508044483    8.63573230002598
H        14.95683286334158   12.38425820653005    8.68536092281475
H        15.23208030898806   10.76831577620362    9.35394658534289
H        15.55978941998978   11.09412114153139    7.61938235664799
C        20.07875482759666   11.71886083944859   12.23629226128994
C        20.34978196615656   13.08376648925034   12.11542050956125
C        21.49660703551633   13.58230551575578   12.72627906951140
H        21.71517014645137   14.63740978775525   12.63687796150799
C        22.35578344445514   12.77704781220085   13.45389612025288
C        22.04942021742124   11.42842178322116   13.57730423692213
H        22.70136925155569   10.78907860659149   14.15538210239820
C        20.92051657872213   10.88843355414945   12.98543501655245
C        19.46482406957838   14.05335978743581   11.38496543885932
H        18.50576972913002   14.17777434785074   11.91478907333103
H        19.26344217653660   13.72497118114846   10.35912155101598
H        19.94339538366435   15.02967880280816   11.33699974173444
C        23.58460639143065   13.33545442033984   14.10334216717878
H        24.47675783792816   12.87472596006265   13.68059041526288
H        23.57669384213229   13.12401967162224   15.17136133939130
H        23.64863297841754   14.41098652090762   13.96112152107996
C        20.58924149204440    9.44116771285546   13.16574509381978
H        20.57652224632168    8.92880131032558   12.20302891736258
H        19.59433904831790    9.35888842995915   13.60483016742828
H        21.31101009630376    8.95357233108885   13.81525801508530
C        17.00944840813491   12.15162250716844   13.89027014846011
C        16.48839726724015   12.48847647282516   15.28134476125041
H        15.50608430226083   12.03277817041101   15.38605697877933
H        16.39037752236111   13.56441600637299   15.39068730406717
H        17.15437550208129   12.07793982310094   16.03415484713813
C        14.46290973396333   13.47068754612977   11.10354551458315
C        13.28192896188236   14.40798974726090   11.31500880960517
H        13.23629350101487   15.14036087567510   10.51310424297453
H        13.42897394342124   14.93448680113336   12.25539861688999
H        12.36087574224161   13.83525849526514   11.36690295604943

