23
CSD_code = TOVHAN | q = 1 | S = 0 | Stoichiometry = C10H9FeO3(1+) | MND = 8
Fe        2.49787986290114    8.23393244605097    2.36924029512818
O         0.45103167475747    9.44571525185418    4.03700879655392
O         4.33693174518862    9.70253525921625    4.08292461476041
O         2.61380653682623    5.74596685830279    3.92008767695100
C         1.31487595501911    8.48733922142290    0.44767287983526
C         2.55673079698192    9.14989816859157    0.29042248703531
C         3.81364113148378    8.55277532784769    0.57873586030347
C         3.96606002641914    7.18315841239554    0.81425195373859
C         3.24738292220221    6.15542724165252   -0.02568307359676
C         1.79704417680756    5.92439513039415    0.38284682323330
C         1.12199505999638    7.16562709138764    0.89447946467042
C         1.24141390206417    8.99065344333788    3.36763517907489
C         3.63022135387658    9.15511529902518    3.38985345332650
C         2.57017942757510    6.68930775875649    3.30074961009055
H         0.43542550379187    9.12030144957817    0.36680956098141
H         2.54044056231937   10.18270658487185   -0.03494956731738
H         4.67284074238340    9.21278492851620    0.65081003589282
H         4.94217035052010    6.87043494793039    1.16980141281537
H         3.27286694485176    6.51225024262822   -1.05978562747337
H         3.78874067027459    5.21110931518573    0.01445065421616
H         1.21646029570558    5.56543121808384   -0.47470325507462
H         1.73744206543703    5.14352860972280    1.14220629050159
H         0.09391829261674    6.95220579324686    1.18203447435312

