30
CSD_code = TOVJUJ | q = -1 | S = 0 | Stoichiometry = C11H13NO4V(1-) | MND = 5
V        -1.65688556287511    1.71351677445396   16.69907828047207
O        -2.67471327618828    2.44146609837356   15.36141268989347
O        -0.59307578370323    2.44935134580843   17.86396955701999
O        -0.80698696506489    0.61234049572774   16.02426766429476
O        -2.72869771353434    1.09829989162873   17.62139160596451
N        -0.27814192917371    3.54507410456959   15.53732090511557
C        -2.47856274599294    2.48174373243812   14.09336023497915
C        -3.51795679345153    2.08203880915100   13.21508491138795
C        -3.37602463414676    2.12313988759202   11.84986444036223
C        -2.18768861873866    2.56234419260738   11.27218787666183
C        -1.15334884147801    2.95612544348792   12.09287341445927
C        -1.26994691747197    2.94123286343841   13.48263340428287
C        -0.15063051983740    3.35675908297799   14.29462732445917
C         0.76214291136663    3.88204836383692   16.45680764360054
C         2.18270832237326    3.98297753739757   15.88573524414687
C         0.35564144897565    5.20536756968689   17.12128043038585
C         0.69081719261164    2.74410795956439   17.52283327031519
H        -4.43402441875236    1.72790696037076   13.66900690912795
H        -4.19409026846521    1.80691527191258   11.21438498165313
H        -2.07783765101629    2.58784025215762   10.19656692215091
H        -0.22150930753562    3.29794387095033   11.65566330138594
H         0.79898141116117    3.51233585351064   13.75215616433116
H         2.88602332484125    4.16343591853867   16.69645445073077
H         2.45941435716486    3.05430716967843   15.39011616494106
H         2.25639998929933    4.80460594717570   15.17308500332349
H         1.08521796917081    5.49048962862400   17.87801832867441
H        -0.61606177115620    5.06968174118355   17.59319966380604
H         0.28180460768678    5.99958568848650   16.37836301579518
H         1.25998740937955    3.06905482219888   18.41994964649856
H         1.18334477455114    1.84716272247167   17.09810654978016

