45
CSD_code = TOWCIR | q = 0 | S = 0 | Stoichiometry = C12H25N5NiS2 | MND = 5
Ni        3.66501654284139    3.66099021228793    0.48356565364431
S         0.96970177173421    1.71680460985883    3.41557249524064
S        -0.28347978163780    5.76693463132891    0.95176666179656
N         5.66642035833374    3.32658061124036    1.30338594548723
N         4.64707268649106    4.57753548457808   -1.11973404079495
N         2.67130594985480    2.46544405618980   -1.25850162531362
N         2.97396989926637    2.64124759960453    1.77369691247863
N         2.34580897956883    4.98700494749831    0.68183292622789
C         6.52764249068789    4.14238208191983    0.43740884659157
C         6.02844024589578    4.08254146834864   -1.00274155392292
C         4.06598120760674    4.17341412668164   -2.41801920511805
C         2.67854628845017    3.54554850966161   -2.25265430723609
C         2.05280613378502    2.33161937678875    2.44938289024343
C         1.20331979921636    5.24764350099460    0.83564042982237
C         5.74504547040419    3.80979087939484    2.68490575768589
C         6.08691981313621    1.92679036741866    1.27691357156074
C         4.56160247172107    6.04226526028225   -0.94857591899235
C         5.50704346706133    6.88174510282053   -1.81076290987749
C         1.28277638900670    2.11129361142254   -0.95518727789928
C         3.33843167258615    1.27241487493867   -1.76958327143292
H         6.50412403849647    5.17564571769096    0.78985112461369
H         7.57217379855890    3.79617923619638    0.47973276896521
H         5.35799322994866    4.82703564028159    2.74621652137813
H         6.78117402241276    3.79028675645656    3.04948176130788
H         5.13183519841260    3.17742384293647    3.32409563429686
H         3.52924553387041    6.32289224750705   -1.16481907865810
H         4.73504134415863    6.28076218139099    0.10308413973151
H         5.19533075181640    7.92104841549232   -1.74964670598747
H         5.47830672606442    6.58529635972242   -2.85733252855928
H         6.53580770957135    6.82523856755166   -1.46183818777037
H         0.76357243341964    2.96991410336922   -0.53428937983789
H         1.26557401153706    1.31079027016141   -0.21887303589593
H         0.75444398287867    1.77830524835712   -1.85875915559029
H         6.04314949855482    3.03741957295733   -1.32144395742718
H         6.71033679733533    4.63699843565969   -1.66062073082332
H         4.72967291286335    3.46083258452284   -2.91390215960536
H         3.96674944483950    5.03523044169714   -3.08427445614764
H         2.33083715365121    3.18207185606676   -3.23431583043867
H         1.98598941563060    4.31561849268562   -1.90322744997855
H         6.07018415704609    1.53846189360259    0.26050417534030
H         7.10270771278055    1.81287776482828    1.68120191782562
H         5.39743073032017    1.33519404568819    1.87621038450702
H         4.37855950033507    1.47894345846274   -2.01277717762749
H         2.84023109817212    0.89146087831574   -2.67331058866757
H         3.31485694132409    0.49798067514690   -1.00515998515166

