54
CSD_code = TOWFEQ | q = 0 | S = 0 | Stoichiometry = C22H27MnO4 | MND = 8
Mn        3.19796037725660    1.26241748690388    3.16399443378202
O         0.80559674264479   -0.41016033997681    3.40442413103198
O         3.38926398496492    2.36518154320172    5.87761981590503
O         4.85753436406741   -0.84139071061352    4.34424141509019
O         3.10353337742958   -0.79585053604846    1.07974563156431
C         4.17150922620660    2.26437959873276    0.26433767442568
C         4.99019380194293    1.91374341026594    1.52465504426261
C         4.82079869072291    2.88084298145322    2.49248162234730
C         3.75580312736047    3.88773379296909    2.05654797105752
C         2.48549158412766    3.43497088601893    2.73511217201823
C         1.59758977703410    2.63391211514720    2.07595208988683
C         1.73167489390721    2.42705726237023    0.58413664729017
C         2.25268130005004    3.74506500254964    0.01184616991881
C         3.67855253810835    3.71376162902191    0.52894394275879
C         2.83868077145587    1.41373155349852    0.21561923440091
C         3.00394475617536    0.37127337527951    1.34765759657387
C         2.54070916165341    0.71952423655732   -1.12331032820322
C         1.27054313525151   -0.12990791502182   -1.13317181754306
C         5.01810258165557    2.18820742944909   -1.01553257403127
C         6.15700799311515    3.21114611668557   -1.09019078023715
C         6.20847308908271    1.01584615175378    1.48724267101831
C         6.03536156988601   -0.43539985652141    1.04258929120521
C         5.79876353668632    3.28927839365725    3.56737944999463
C         6.91330973852049    4.14938886376047    2.96308072646205
C         1.73985578475914    0.25810569469853    3.35592530013260
C         3.31986332119613    1.97892642087044    4.79665012550358
C         4.22816142980504   -0.03715229094905    3.81007532400062
H         4.00755428991898    4.91017420035787    2.35170687855980
H         2.20209153129016    3.94360203813690    3.65316362306092
H         0.60586923409846    2.48956467474074    2.50183413616844
H         0.76831875542102    2.12922955658335    0.17211960685805
H         1.68919742437785    4.60977272955754    0.36441739279278
H         2.23488176526256    3.73417497781658   -1.07806351495720
H         4.31345447704176    4.45901666600897    0.05217684842804
H         3.37795421509606    0.06406728991369   -1.36646752862700
H         2.45425520354898    1.47331077689895   -1.90976349093621
H         1.18692844149235   -0.63100051723899   -2.09525114089477
H         1.30739743011535   -0.88879956645547   -0.35765010737416
H         0.37423974490636    0.47018775594448   -0.99312820523555
H         4.37235368497812    2.35369283858181   -1.87789597744811
H         5.43347579093709    1.18679879618809   -1.11050987777910
H         6.92623570717036    2.85141797276167   -1.76968925908731
H         5.80639661122719    4.16617701353488   -1.47502775927792
H         6.61271507180418    3.38791120396935   -0.11983631477621
H         6.93193945958980    1.48586609181675    0.81369110456726
H         6.65630223555718    1.00339408342488    2.48369879291035
H         7.01679989649816   -0.90098502488981    0.97460086333179
H         5.44172546234411   -0.99702452169021    1.75732833233016
H         5.55181623433683   -0.51730570073613    0.07386295269973
H         6.23988032471649    2.41796076944652    4.05658270371681
H         5.28302948513803    3.87173479294758    4.33410559109869
H         7.57513266549333    4.50313151244834    3.74956502355694
H         7.50196769989475    3.57333455832511    2.25361494402006
H         6.49972650267831    5.01386273589261    2.44776140167746

