55
CSD_code = TOWFOA | q = 0 | S = 0 | Stoichiometry = C23H23BClN6Nb | MND = 11
Nb        2.00618341511490    5.06049837556953    5.45640822828696
Cl        2.23579534854777    7.52403036501690    5.55126057796390
N        -0.05176092273823    5.18209243870040    7.95120490205582
N         0.21719886065759    5.70385558240302    6.74976434516290
N         1.15409607294699    3.00222626821892    7.77607825379687
N         1.63200777558184    3.09084737716097    6.53083811639078
N         2.26982804851846    4.99247552672867    8.69774662703433
N         2.85013003507554    5.42087514791069    7.57361953119812
B         0.92914155922430    4.23793366305856    8.64811757369527
C         1.73686662050578    3.73084166610085    3.02343826880542
C         0.56636093284648    3.35643765814633    3.69501864305711
C        -0.13687300137036    4.52346401551655    4.04647811876080
C         0.59033054789811    5.63480128979113    3.56210807396552
C         1.76068430709102    5.14186655296318    2.93587376560185
C         5.01169319091184    6.21879156006349    4.11001619067002
C         4.07159810784659    5.26175020864521    4.73783596216627
C         3.99955179174663    4.11274602335266    5.30017768979094
C        -1.15752555882029    5.74748963146872    8.45580827625929
C        -1.62457653094163    6.67185116119847    7.54541414487576
C        -0.71589518420227    6.60930914459052    6.49133934493174
C         1.05281969448234    1.71445884194525    8.13682133229093
C         1.47911823486972    0.93582309913091    7.08235760365562
C         1.84103126026684    1.85333085109116    6.09930278958593
C         2.99811859510711    5.37019770796295    9.75489971273124
C         4.09566968983440    6.07253141600155    9.29653345142309
C         3.95402900803856    6.07794479078402    7.91197645299836
C         4.69868489467261    2.90497358756092    5.63974078171150
C         5.25900323124427    2.10930189338148    4.63468598407422
C         5.88879063195482    0.92164452089366    4.94988441893015
C         5.97526618792599    0.50346330565662    6.26846695820490
C         5.42986599064189    1.28638828650637    7.27362769653748
C         4.79290979733168    2.47237090032054    6.96650022273982
H         0.55617282323148    3.94334306962786    9.72945242928660
H         2.45716709266740    3.05984891375806    2.57678490024666
H         0.22253217587694    2.34702925866597    3.86441427349565
H        -1.13502345706559    4.55055995978889    4.46473164711120
H         0.22653971497781    6.65005866778498    3.46961413887296
H         2.42960856380868    5.72782552466584    2.31832531765129
H         4.69301848973782    7.24142068420103    4.31668917625548
H         6.02573714044720    6.06621608991554    4.48463102212942
H         5.01626346504910    6.07517798203706    3.02819838876359
H        -1.53742310224515    5.46374644968238    9.41639989450280
H        -2.48661526139245    7.30046545126313    7.63029131524289
H        -0.69949884897214    7.18652489961762    5.58653179777122
H         0.69072362964267    1.43586603730612    9.10542990311425
H         1.52921400580115   -0.13180253074797    7.03080558599724
H         2.24894064327389    1.66498343051382    5.12526191295771
H         2.69805273492943    5.12267265290887   10.75316567568698
H         4.87811253922838    6.51622111422294    9.87618259959344
H         4.58140150803928    6.52350765159447    7.16129055510128
H         5.18899015393329    2.43749534793439    3.60706458896842
H         6.31721605390975    0.31653498734599    4.16361843500260
H         6.46705630991729   -0.42664905597717    6.51153009563519
H         5.49828293086111    0.96588587334530    8.30345924366978
H         4.36768806152180    3.08155468270356    7.75428306358305

