52
CSD_code = TOWGAN | q = 0 | S = 0 | Stoichiometry = C25H18N2O6W | MND = 6
W         2.54725184119023    5.81115724204856    2.98764505230415
O         2.10839647197707    7.12293766362071    5.79612707767808
O         5.56382318738062    6.66481426673844    3.04766079590734
O         3.03126727503818    5.19491396266560   -0.04828898498704
O        -0.52168141521350    5.13602478170653    2.89256500895160
O         1.94149510077704    8.69144942292102    1.94764218356651
O         6.07917249669608    2.71961752586356    5.18541630054599
N         3.01750045044327    3.70189239691193    3.71500243578154
N         4.12816920153486    3.63999105514844    4.47852284897560
C         2.27368102472238    6.53080557314559    4.83075687958739
C         4.46912505134721    6.31575256697763    3.05231353581392
C         2.83881898220567    5.31216839452814    1.07486718589356
C         0.60138306008140    5.33489522645681    2.92633046118397
C         2.15447301348894    7.63138609421585    2.33103026542561
C         7.39074317210666    2.33286858550025    4.81496648854586
C         5.16223360271974    2.86987484761090    4.20360812914954
C         5.25286861543291    2.17675596013229    2.91599849124821
C         5.13796634364465    2.90558501277096    1.73178682382269
C         5.18415558406856    2.25925926317303    0.51354155887676
C         5.34182546963316    0.88286040965365    0.46085682280964
C         5.46378204815148    0.15496428486891    1.63200437271371
C         5.42203068233604    0.79375107640131    2.85705815335942
C         2.48883280491905    2.50305471235733    3.27885509847551
C         1.72491521969491    2.44904993887567    2.10896301723424
C         1.12707243250894    1.27263814058704    1.70482809828114
C         1.26388993312447    0.11516736736247    2.45207657771486
C         2.00046194925850    0.15593501445761    3.62424807410351
C         2.60909842755434    1.32351801604258    4.03174968192051
C         4.09046397103219    4.38393765672988    5.70190496053575
C         5.10951414635714    5.25739922226741    6.05532689703699
C         5.02258693167785    5.94739514862180    7.25089144228907
C         3.93771672966087    5.75825418051352    8.09145489969382
C         2.92781070560032    4.87985588420572    7.73602868619771
C         2.99693012585672    4.19298071298774    6.53769918328884
H         8.00646018344404    2.52455075133345    5.69175564080573
H         7.75307856426165    2.92461015846477    3.97111930886790
H         7.44353331927005    1.27342743454617    4.55667307149219
H         5.01642413232591    3.97937467903585    1.77481341646013
H         5.08989614197416    2.83135059953434   -0.39647194248269
H         5.36530753560828    0.37830203787488   -0.49284329408661
H         5.58129859200762   -0.91739039439473    1.59402005872417
H         5.48047984117720    0.21803529101928    3.76901356707501
H         1.60566096722732    3.34213350254638    1.51331697720846
H         0.54962462365159    1.25994543276128    0.79198517669287
H         0.79781194743342   -0.80378497709732    2.13157724552524
H         2.10095172535302   -0.73249010303810    4.23164322412217
H         3.16500543503035    1.32975761964156    4.96125128875684
H         5.95383869755758    5.40514823633984    5.40019470926470
H         5.80414444536961    6.63980540695185    7.52402886854484
H         3.87658675969505    6.30170147714659    9.02180139049001
H         2.07966976513677    4.73495765188980    8.38732990644870
H         2.20975268639333    3.51545358750816    6.23985288216045

