61
CSD_code = TOWHUK | q = 0 | S = 0 | Stoichiometry = C31H23IrN2O2S2 | MND = 6
C        11.07704441117412   -0.55709074749686    2.28002336224545
C        11.75414928954426   -0.23018913584491    1.11743392692532
H        12.77632110217662   -0.54270489896369    0.97348600601936
C        11.08112378394206    0.49728769590730    0.15531511635807
H        11.58833391717893    0.76506712586280   -0.75901234038995
C         9.75413050997269    0.87925883160589    0.34536279247178
H         9.24829552621446    1.43379443390605   -0.43052021743740
C         9.07610486738863    0.55650649128614    1.50090884887320
H         8.04642699541493    0.83296819325083    1.65595933916042
C         9.74365285505433   -0.15735524990751    2.49442199657952
C        10.09368403060804   -1.27476230405651    4.39557425594312
C         9.66687315083217   -1.83260615370293    5.64212329933122
C         8.33305180848586   -1.49626173671157    5.97249177765618
C         7.83357583007502   -2.02597829848675    7.15748289266784
H         6.82013235217072   -1.80476291508086    7.46225855729616
C         8.61090556553043   -2.84132688727152    7.96429343660352
H         8.19417073028858   -3.24017296392806    8.87855410252617
C         9.92073379869527   -3.15173137971513    7.61895597634901
H        10.51491072251874   -3.78412905084790    8.26175620805000
C        10.45571463611725   -2.64786166808368    6.45344586283873
H        11.47278544072476   -2.87188914448231    6.16234861222534
C         4.13410520037597    1.17632537855531    7.04096379673570
C         3.63286319398388    1.96240662472873    8.06454072266061
H         2.56849634934769    2.05453212778713    8.21237743601182
C         4.53307607005990    2.61307018196664    8.88562512957629
H         4.16633828336341    3.23274451014959    9.68964269132575
C         5.90665162475235    2.46935312030097    8.69709069593762
H         6.58693255454364    2.97507942847784    9.36555890621986
C         6.41043566942716    1.68911497483781    7.67896671503420
H         7.46930202332643    1.55738103406048    7.53008879237489
C         5.51930345850838    1.04487047683946    6.82266371933638
C         4.77119789084644   -0.28199561245051    5.19002173500629
C         6.31815188513355   -1.41889661851435    3.79207195371610
C         6.58267651308322   -2.33825438409027    2.78265175542551
H         7.60378009359371   -2.53825320076687    2.48890581952464
C         5.55812774894655   -3.01379836343079    2.13918876407802
H         5.79493606232262   -3.72461238863683    1.35990376736222
C         4.22892594922931   -2.78845966856996    2.47628625055772
H         3.44205294646757   -3.31846717935108    1.96042549618686
C         3.92189884705664   -1.88575000120866    3.47095325250185
H         2.89602892718203   -1.69005692802551    3.75153263190122
C         4.95735040507589   -1.21399991450253    4.12029071610038
C         8.80394251718865    2.67397099226310    5.33635886629214
C         8.03385868606198    3.32285540253878    4.36799043390339
H         8.17512596018491    4.38877894685303    4.26671883594899
C         7.10099817846508    2.72698244456756    3.51582008327347
C         9.76391164262494    3.54961762163942    6.12355623626068
H         9.20264049492137    4.28259894305690    6.70052820161964
H        10.42836763633683    4.08272140388237    5.44710193181401
H        10.35260536065944    2.93482937263955    6.80042805001225
C         6.38380729488798    3.65718701449469    2.55241008674295
H         5.64714033305590    3.09777716802492    1.98044531910658
H         7.10281514780430    4.10662905682043    1.86984618996713
H         5.88739224165764    4.45520892295791    3.10032961417542
Ir        7.54244625139749   -0.12433569737903    4.72898725116824
N         9.23460571189973   -0.56354015193762    3.69666710867941
N         5.83468856574794    0.23696915279427    5.76585655191107
O         8.77905240656633    1.45636740433333    5.64051939243402
O         6.80260283963480    1.50974157849376    3.44529041405988
S        11.64453490182337   -1.48571786781521    3.64202025020986
S         3.25681080833745    0.21356445637314    5.88201062256759

