93
CSD_code = TOWMIB | q = 0 | S = 0 | Stoichiometry = C43H46P2PtSi | MND = 4
Pt        9.48181826070498    2.77341021040865    7.72276432518849
P         7.99532911291544    2.98545808069096    5.88189612508897
P        11.45406281509296    3.04638049110746    6.42011967929764
Si       10.50892210022879    4.80888625449937   10.61247150874675
C         7.89303165718692    2.46875986836765    9.02961199493085
C        10.66693519937878    2.25106459938113    9.27409510301820
C        11.04894037849530    3.04152029302811   10.28770374034604
C        11.16569222287039    0.86848514405243    9.21262412923999
C        12.50836065320564    0.56998235735643    9.46045058632154
C        12.97819004236305   -0.72683031972551    9.36553977258024
C        12.11727880166870   -1.75899010739709    9.03176251355596
C        10.77900165097576   -1.48290774333097    8.80158953119646
C        10.31048906848502   -0.18635165278272    8.88640570035159
C         8.75020677804566    4.91110387335440   11.32292055288815
C         7.84076337314110    5.88530812937975   10.92698320837325
C         6.56891997579739    5.93868008518058   11.46971218836161
C         6.18314011791395    5.01467372488365   12.42533431765055
C         7.07800547973785    4.04051222856611   12.83578910475352
C         8.34643291162201    3.99349698353987   12.28812830729863
C        11.69820022355005    5.48934918069482   11.92508519102633
C        13.07089504706607    5.30388132350688   11.79928352798620
C        13.95345405865417    5.80209458928258   12.74009856621022
C        13.47275828646658    6.50009249785170   13.83533520908047
C        12.10934693925854    6.69352624405148   13.97860021718753
C        11.23543682576102    6.19235037783367   13.03022033371196
C        10.60454094894152    5.99502347849723    9.12975487330755
C        11.53012142261878    7.03470486847945    9.10153999725821
C        11.56311907019963    7.94002789475607    8.05520223991207
C        10.65490051682793    7.82728528235485    7.01647980781903
C         9.72961716153030    6.79566359848012    7.02540400489331
C         9.71108513543720    5.88400358764462    8.06722041622729
C         6.21913942123309    2.54627754308001    6.09464896036755
C         7.78502020061091    4.44876165430343    4.78557439111589
C         8.47222035522734    1.64535121698312    4.74065958759452
C         9.06953950942897    0.54223300504392    5.34342395257232
C         9.45617851422889   -0.55086089934701    4.59062883430493
C         9.25285838568602   -0.54696359081051    3.21975277463337
C         8.66072234310295    0.54861942518711    2.61307624518826
C         8.26769050268122    1.64075180271274    3.36728771466456
C        12.79616478156920    4.02382837572536    7.20329779868085
C        12.39851501844382    1.50670070379972    6.07640292905845
C        11.40602085191543    3.78638301705437    4.75072331143430
C        11.44331193158808    5.17013024263325    4.60278282423723
C        11.32190906718964    5.74796505305579    3.35232654670418
C        11.15203581771473    4.95269749424358    2.23059525439001
C        11.10979257598253    3.57553767738478    2.36883566631490
C        11.23370163191154    2.99569169627224    3.61844292548787
H         8.17400800488330    2.28454933765835   10.06762660153920
H         7.24815577726632    3.35609031253465    9.02958539966790
H         7.27084248315868    1.62454096763367    8.71019780183062
H        11.68919952858189    2.60973309397572   11.05838128893963
H        13.19018787084911    1.36917847029606    9.71905116538121
H        14.02269935511204   -0.93476757610984    9.55308873983778
H        12.48644057089198   -2.77162964417991    8.95661889553477
H        10.09847896891888   -2.28592947486838    8.55400654844066
H         9.26053986839040    0.02334648049621    8.72989332975884
H         8.13238524977654    6.61365189301543   10.18303433875246
H         5.87541317113044    6.70350202725018   11.14724960947334
H         5.18961518940117    5.05369732216100   12.84950189083729
H         6.78305800671979    3.31690759953141   13.58295299356457
H         9.04029594843569    3.22995678575069   12.61020874189964
H        13.45160742789574    4.76013398599726   10.94516614090900
H        15.01737063670212    5.64773495898881   12.62230787508891
H        14.15835834800154    6.89066047281015   14.57402310565157
H        11.72829269103389    7.23681458912249   14.83216083759380
H        10.17189443611691    6.34542306237165   13.14814084728969
H        12.23137974807569    7.13907282016354    9.91710055988358
H        12.28996936262942    8.74037327358915    8.05424055960934
H        10.66578488699488    8.54030053605006    6.20367798629267
H         9.01974915415354    6.71274234467963    6.21513837591211
H         8.97082071271007    5.08553472379369    8.07914084494371
H         5.73533962842167    3.29213809047699    6.72309156549786
H         5.72328976671625    2.50234138395482    5.12515630588879
H         6.14333560499451    1.57684094554394    6.58221727305412
H         8.74461933915860    4.74236534901485    4.36460171427951
H         7.07384354923964    4.24872147868008    3.98594385216611
H         7.39961736616526    5.26550774690200    5.39509950390461
H         9.23806224690873    0.56453104001472    6.41803223808932
H         9.92064699813785   -1.40108157427952    5.06969339859299
H         9.55804460448889   -1.39464883004257    2.62372352007353
H         8.50455682180978    0.55228935177749    1.54374144774287
H         7.81523062449369    2.48845949228240    2.87501925901691
H        13.07406481167596    3.51692605303442    8.12577851463831
H        13.65807732128583    4.09173136905540    6.54000518844958
H        12.44545828234107    5.01966124111674    7.46196801711903
H        11.76355264729379    0.76012685013482    5.60554220102835
H        13.24985481562056    1.72603041424657    5.43242174582574
H        12.74740875459024    1.10297539807309    7.02526338876016
H        11.56104801239048    5.79771034269921    5.47314036542067
H        11.35706482927960    6.82337104554700    3.25296531674997
H        11.05343060771715    5.40424419871999    1.25438855668914
H        10.97853282176497    2.94723501192331    1.49966619406918
H        11.19685600254884    1.92065539706911    3.70835946365608

