98
CSD_code = TOWMUN | q = 0 | S = 0 | Stoichiometry = C42H53OPZr | MND = 12
Zr       -0.34976176010409   -0.65747345014855   -6.20795069202576
P         1.64417477534256   -2.92492822664537   -9.33598571141338
O         0.36334105492963   -2.07058799942574   -7.17802749489161
C         0.55562552710406   -1.89034753009638   -4.17152310652793
C         1.40021948503886   -0.77269264101362   -4.34465231002349
C         0.64346741843075    0.38735304858397   -4.08312806763273
C        -0.67401090283848   -0.00427187238698   -3.78063853964415
C        -0.72616645222449   -1.41666648399637   -3.82530129374102
C         0.39023453018155    0.61450589524873   -8.29399504362139
C        -1.01485642315069    0.65522643390649   -8.32092914144642
C        -1.45010738412438    1.43865514841873   -7.22824801327928
C        -0.31378519733240    1.87717232981876   -6.52826029385950
C         0.83012223978252    1.34891972951868   -7.16895254337553
C        -2.51069437023672   -1.28014915498239   -6.26697146846712
C         1.29489008034581   -3.06571156735450   -7.39938943662286
C         0.80312980277812   -4.42529315058845   -6.97647692667833
C        -0.43283649880415   -4.54558979905070   -6.35161236710639
C        -0.88485344397654   -5.78138741472562   -5.92461334891246
C        -0.10717417731437   -6.91121631156418   -6.11145599700261
C         1.12247126145182   -6.79842610603386   -6.73875701049279
C         1.57550428545379   -5.56636301430420   -7.16967607929366
C         2.60515176263842   -2.66429646012811   -6.73839637201586
C         3.27564781638564   -3.43203866583513   -5.79284772770734
C         4.45495313558972   -2.97546151904756   -5.22695311337069
C         4.98412805025436   -1.74981450043322   -5.59118859266874
C         4.31787421961200   -0.97037702863891   -6.52382582015118
C         3.13581680150490   -1.41986779474371   -7.08272935725444
C         1.20886622179086   -4.57171819138592  -10.03490615299402
C        -0.15982707951217   -4.88660794993000  -10.21063905390250
C        -0.52693379297543   -6.22245548313912  -10.23000141725401
C         0.39890613032175   -7.25291530135634  -10.15833731452526
C         1.73101879024952   -6.90145992897616  -10.28749223240411
C         2.16528732325458   -5.58115702472144  -10.28637406616084
C        -1.22792567139362   -3.83193059909788  -10.52159055888258
C        -0.68360122193751   -2.85005483302727  -11.57015644629478
C        -1.68620164206035   -3.07256945683043   -9.27471807804562
C        -2.48293228916376   -4.46656558230421  -11.14601038809688
C        -0.06576217781656   -8.69904747916648  -10.11018487776947
C        -1.19872837425810   -8.85775424933125   -9.08792409541083
C        -0.57687072047022   -9.08675538297659  -11.50559634515400
C         1.06342099619744   -9.65713180559509   -9.71713399649222
C         3.62314119801302   -5.32631099275442  -10.70087921236503
C         4.14266167510529   -6.48074752278367  -11.58336351358212
C         4.58562648352091   -5.24399176317037   -9.50555493120738
C         3.71608611727260   -4.08346974239082  -11.60041254772460
H         0.86383082978550   -2.92843345316055   -4.18435595195708
H         2.47505379841113   -0.80477428553871   -4.46765329545651
H         1.04824572314183    1.38733464378383   -3.98924067029379
H        -1.46752616061230    0.64621534235095   -3.43155299568825
H        -1.56173545351129   -2.02942533358981   -3.50941111753072
H         1.01163039831892    0.19410805869338   -9.07585100780742
H        -1.64082137270012    0.26425317316891   -9.11234624237149
H        -2.46823786227175    1.76030504880866   -7.04798468443248
H        -0.31481842216856    2.60822758559628   -5.72938563114091
H         1.85904912916603    1.60921232320766   -6.93978810313963
H        -1.02375373668811   -3.64722797639817   -6.19552287424857
H        -1.84514632685797   -5.86163528155322   -5.43563801482301
H        -0.45369918992790   -7.87269267599540   -5.76031986277160
H         1.73745794211144   -7.67457398975192   -6.88536333756463
H         2.53854748408813   -5.48654961457886   -7.64781926129614
H         2.88018482914604   -4.38872008314537   -5.48692336298559
H         4.96163476577127   -3.58503335144611   -4.49315336269402
H         5.90681011903133   -1.40269111796680   -5.15050788989656
H         4.72161374001326   -0.01163020938557   -6.81625468935081
H         2.62287409438515   -0.82026021429429   -7.82521099126424
H        -1.56764434340751   -6.48110900568743  -10.29291730272950
H         2.46125209075682   -7.68309115491687  -10.38214586493233
H         0.13071127295485   -2.24805005585339  -11.17701352035281
H        -0.32318370410273   -3.39311105501451  -12.44173454178837
H        -1.47326994889185   -2.17239361100132  -11.88784446450318
H        -0.88368325238672   -2.48044457393954   -8.83269670035442
H        -2.49672795489895   -2.39540928818292   -9.54134077522304
H        -2.05236774826927   -3.77339528323782   -8.52673602587776
H        -3.13949619752934   -3.67479881994783  -11.50140844208045
H        -2.22707973075070   -5.09633506685458  -11.99521371625734
H        -3.04464367826963   -5.04951742452330  -10.42024720195201
H        -0.88912954555698   -8.46559397096877   -8.12275650039666
H        -2.09573329391328   -8.32999867405388   -9.39851487978882
H        -1.45493675111368   -9.90929552534519   -8.97442598109616
H        -0.91990240396721  -10.11937175077800  -11.50849958248045
H        -1.40355993810555   -8.44741226823916  -11.80542407993205
H         0.21721958249233   -8.98326098813518  -12.24234760020679
H         0.66216266085950  -10.65899255761877   -9.57745860822342
H         1.82494299433126   -9.71396545428720  -10.49108525256385
H         1.52692342698372   -9.34183930812388   -8.78544864897995
H         4.37716729951248   -7.36942141674710  -11.00302472142315
H         3.42039932075947   -6.73915673102151  -12.35414152161158
H         5.06215555678607   -6.16542872810718  -12.07273705626941
H         4.50118906804428   -6.14510018173034   -8.90053851341794
H         5.61024535562352   -5.17246637797187   -9.86638697635272
H         4.40053385120015   -4.38558936699722   -8.86468445688772
H         4.75585538505302   -3.89349938385652  -11.86009538292089
H         3.16001624373533   -4.26383635691114  -12.51842087014902
H         3.31695240657425   -3.18249072894101  -11.14687238071636
H        -2.93852422336382   -1.27488086501465   -7.27947368667628
H        -2.74690897619447   -2.26766168499225   -5.84280189704596
H        -3.09135984942140   -0.55022921771438   -5.67595821198608
H         2.99139302625931   -3.21709026721458   -9.13366017462971

