60
CSD_code = TOWPOK | q = 0 | S = 0 | Stoichiometry = C22H25NO9PReS | MND = 6
Re        0.52939407792577    1.55024198382929    1.12201035091006
S        -0.61344007370734    3.43052337070711    2.32803448100566
P         1.42027630828333    1.00932611640124    3.33675271982879
O         2.86777644864873    6.38279143771346    2.23776494989971
O         3.68002186579047    5.29504367301882    0.47632337735532
O         4.49003012640068    3.49305628889600    2.70686330775373
O         5.77572377704676    3.16459441328856    0.90676386062356
O        -1.57856966001560    5.46961522578722    3.96015173023443
O        -0.37137698440293    7.37066479708614    4.14190886119460
O        -1.94893721781964   -0.26311287916052    1.59069520297428
O         2.15498564379476   -0.62510845579004   -0.37156964438573
O        -0.55356035095563    2.76073139895288   -1.50690193177958
N         0.46649670827910    5.73232246331087    2.93345950951025
C         2.10849001067879    3.00446139941242    1.12901940830600
C         1.88297394875378    4.27905189821183    1.61713330170038
C         3.49797884012229    2.65766385542304    0.65934035401570
C         0.63095960225042    4.54733245602021    2.28934679152322
C         2.84276335198663    5.40116666845511    1.51495108708906
C         4.60766146777340    3.17292617876302    1.54958065952793
C        -0.60902145651439    6.12597317461181    3.70263651776111
C         4.60089526415446    6.36142938691815    0.30588372242248
C         6.92420891680100    3.52952054145047    1.66079373134518
C        -1.40052443980554    7.96987705221281    4.93183412098605
C        -2.50327001480439    8.55375204693433    4.06113604417341
C        -1.02686539427135    0.37968478953610    1.38512121516790
C         1.54795652611720    0.17675367919442    0.19225717546978
C        -0.15858377273203    2.26460619060151   -0.55449119647836
C         1.92501387132945    2.34188960123168    4.47600070411430
C         0.28294396351027    0.07002895060665    4.42285698994296
C         2.87284765499487   -0.08234226983782    3.26128301288223
C         2.68397797040792   -1.35237517722097    2.72066848416567
C         3.74937915290679   -2.22088268878202    2.58918520450423
C         5.01789960513819   -1.82224203003855    2.98154363926253
C         5.21357649999385   -0.55428558812090    3.50070853274408
C         4.14721014909483    0.31834061045325    3.64143128447447
H         1.27321941816975    6.37134424109698    2.89820514001662
H         3.62581715780199    1.56967658848698    0.62910758026404
H         3.65396098915300    3.02286269423634   -0.35834140934070
H         5.15585603875168    6.53633114666349    1.22990815488928
H         5.26888681693312    6.05531387155151   -0.49494583591694
H         4.07279753542945    7.27839644332313    0.03654544344262
H         7.23468296018615    2.69585913526148    2.29435452987595
H         7.70435830659824    3.76576903868314    0.94148278365507
H         6.70690082424715    4.39223291732996    2.29393595556261
H        -1.81273903064942    7.21535545007344    5.60982299028431
H        -0.89321913855891    8.74880052931998    5.50413861703569
H        -3.23139106094857    9.06031569285492    4.68799504875278
H        -2.08621310662740    9.26584897399470    3.35300984584774
H        -3.00330748343712    7.75928796952404    3.51258265645485
H         2.31418486684726    1.89453476478130    5.39177937735957
H         2.68558157780826    2.97268460070980    4.01717066093718
H         1.05083200816962    2.94844953383675    4.71453934659854
H        -0.59795866390418    0.68643502367269    4.60699653660357
H        -0.03015230593317   -0.84954733641924    3.93185870995454
H         0.77408799337695   -0.16497692633694    5.36753039330156
H         1.69523690292717   -1.64606238612881    2.39124748505469
H         3.59498864762993   -3.20475609674486    2.17234737758713
H         5.85396706470501   -2.49728029248970    2.87416693647338
H         6.20391900192535   -0.23989225069541    3.79776783692264
H         4.31661029225623    1.31009611336613    4.03161627815397

