79
CSD_code = TOWSIH | q = 0 | S = 0 | Stoichiometry = C36H39ClMoP2 | MND = 8
Mo       -2.04476081142635   11.89425812260134   13.44077327043054
Cl       -1.60671739605042    9.43318371926358   13.34058750041260
P         0.09005372502990   11.65037959488732   14.35477307209771
P        -2.11307408875828   13.10864077671131   15.45335021252976
C        -1.57077480094478   12.85659228959289   11.33492627666619
C        -2.23704740031486   11.61739576158202   11.11995210718102
C        -3.51106678744757   11.67897626454298   11.74577747409950
C        -3.65827238801129   12.98007847715219   12.32671518551231
C        -2.45772487772536   13.71070804932708   12.05588482718946
C        -0.30605152971568   13.29936631937476   10.66734715580127
C        -1.76802052735125   10.49835407124230   10.24948100390701
C        -4.57509638510491   10.63491702634954   11.61922893046542
C        -4.95083340107991   13.58754219563019   12.77984236061680
C        -2.32313384539260   15.19794085968932   12.18435358395884
C         1.14991163331471   10.24578784440983   13.94400309570153
C         1.44951518231079    9.19943553643043   14.80529775812934
C         2.22314267936716    8.14228953611392   14.35644761022502
C         2.69306458710021    8.12113648975912   13.05463298056038
C         2.38711515585689    9.16054048294363   12.18908445120715
C         1.61788781999978   10.21645296416011   12.63324866992770
C         1.26481096605659   13.02025624341079   14.09590171148601
C         2.64340895265110   12.86824046621964   14.20361284388758
C         3.47414687072533   13.96449707865417   14.05458424164116
C         2.94083567641974   15.21981308903784   13.80899553122424
C         1.56802743904394   15.37953253879211   13.71403623003865
C         0.73854665683083   14.28185322379236   13.85613209730766
C         0.08845712505532   11.70493885161420   16.20724272287514
C        -0.63091767808977   12.99330747464420   16.56716897080013
C        -3.26407164075195   12.04166246298047   16.35995031394116
C        -3.72965473441380   12.14367588948709   17.66431966032252
C        -4.55357575365213   11.14757301521800   18.16506023010807
C        -4.89592749692908   10.05763389436285   17.38109558105977
C        -4.42509592712731    9.94708545776304   16.07822884360917
C        -3.61845758568439   10.94638066777075   15.57620822109391
C        -2.72245346305857   14.78398646160581   15.80880910042499
C        -4.09726874363636   14.97716606020144   15.93002017285340
C        -4.61410255089806   16.24791722547954   16.09789328530094
C        -3.76573034407015   17.34320632530679   16.13354642049113
C        -2.39920063241896   17.16109786882937   16.00000016309489
C        -1.87753230514849   15.89065152600244   15.83285542789301
H         0.31019929183221   13.90074386045149   11.33420534562457
H        -0.54970616364119   13.90112758468429    9.78852707892242
H         0.28172629989049   12.44529527727284   10.33846761677057
H        -2.07279819857907    9.53789005023670   10.66075383156054
H        -0.68386981500211   10.49386405493647   10.15692365279701
H        -2.20308130312233   10.60320652635493    9.25246062427903
H        -4.98790529929727   10.63311916612238   10.60792481068661
H        -5.38758377643967   10.81716481530712   12.32129150858675
H        -4.15996275779067    9.64610065375818   11.81847957440421
H        -5.53049549219021   12.88821791453098   13.38244410842099
H        -5.55377862289215   13.86660104965295   11.91197897139825
H        -4.77061058324541   14.48358938558973   13.37110896707875
H        -1.29977676558609   15.51879659620175   12.00455601351953
H        -2.63384764282275   15.55088899432370   13.16785081090842
H        -2.96331642949027   15.67811197599929   11.44021095726549
H         1.06760699488767    9.19819414247550   15.81648804319499
H         2.45346764707178    7.32546330838825   15.02585779306278
H         3.29102683143178    7.28987785067018   12.70987213142690
H         2.74590217127890    9.13934391144747   11.16959992694274
H         1.35797408766943   11.03727998383698   11.97578352356027
H         3.06489419351447   11.89168142924136   14.39974546056283
H         4.54477552997070   13.84088284036540   14.13364244478931
H         3.59483946837323   16.07202498579810   13.69442552193053
H         1.14713592606851   16.35852681343757   13.52877944095151
H        -0.33922833266162   14.37439253780621   13.78676764135072
H        -0.48984127735058   10.83655613402973   16.55279487194335
H         1.10263576169910   11.66771400529194   16.61894181649235
H         0.02648909994313   13.84848281702811   16.38749957647120
H        -0.96392317229626   13.01504677052583   17.61155589770201
H        -3.45912246639036   12.99424970997316   18.27597126883278
H        -4.92668639139817   11.21914633611116   19.17683589582317
H        -5.53494694755932    9.28632521650993   17.78561099819177
H        -4.68374365132504    9.09232202026161   15.47117593405826
H        -3.25600120118332   10.93144728860280   14.52545932198112
H        -4.75542184187343   14.11897918398456   15.90110939128999
H        -5.68095251431653   16.38622142805861   16.19867565430061
H        -4.16936742742714   18.33657773069313   16.26223431346359
H        -1.73616260768921   18.01395655745931   16.02259360415505
H        -0.81070399661606   15.76273688964887   15.71852635922525

