74
CSD_code = TOWYUZ | q = 0 | S = 0 | Stoichiometry = C35H33ClO2P2W | MND = 6
W         1.80024992263313    3.37200031887750    1.30271905347857
Cl        3.86362050426466    4.66302700809964    1.37448170684163
P         0.90004891281783    5.64883249124643    1.21888204246204
P         2.08478159199420    3.86161148705218   -1.07063376023682
O         2.96711224946190    0.47123911563642    1.22827385449387
O         1.50368922556807    2.99173246630964    4.39214668106485
C         2.63949126260019    1.57473052156989    1.25113398265438
C         1.67447707230851    3.18544892725946    3.27060197459486
C         0.17449862007897    2.37156607173376    1.27890514173602
C        -1.00079701644129    1.64816658456935    1.31545654569346
C        -1.93717812061507    1.77449956879218    2.28583303245457
C        -3.26997529794957    1.08846989820394    2.30592019962761
C        -3.85808418193466    1.43210844254945    3.67701903670014
C        -3.23895481639942    2.79055369451686    4.00745914932102
C        -1.80796068193757    2.65865218312842    3.48633497577379
C         0.98363624654537    6.31607408341862   -0.51521454615840
C         2.15330048806857    5.69852879993202   -1.27439524683161
C        -0.86812511157257    5.96948817183553    1.53031319575788
C        -1.75361994355276    5.08976662489922    0.91121467902349
C        -3.11586839907822    5.23272739980225    1.08578834071732
C        -3.60577845471812    6.25230760901000    1.88827542080056
C        -2.72964204333585    7.12791928749946    2.50623652606941
C        -1.36280338008776    6.99257991949742    2.32788746816092
C         1.74195722817215    6.86918891119856    2.26514470082235
C         1.62179142436757    6.65394994193898    3.63779928694256
C         2.28748017731689    7.46628602659119    4.53371045047755
C         3.09471280975016    8.49209943961744    4.06577107463859
C         3.23444025754469    8.69608313241865    2.70421976902790
C         2.56402550280294    7.88744623944499    1.80206806841739
C         0.74260751865153    3.31452544249373   -2.17850779902260
C         0.03917075806220    4.09900807163072   -3.08336916893969
C        -0.97051511509535    3.53802749583809   -3.84823838637084
C        -1.27894178658416    2.19489220510832   -3.72325553407773
C        -0.57648297708557    1.40466090514350   -2.82582519263946
C         0.42302872365401    1.96370356209549   -2.05446794534607
C         3.53825115968860    3.33892862354374   -2.03194212551058
C         4.59628986157819    2.72560573510048   -1.37277876539958
C         5.71225069073860    2.31993899019016   -2.08320484961145
C         5.77151440311605    2.51790029368906   -3.45243777975699
C         4.71283544124905    3.12014260873449   -4.11475561595075
C         3.59678585110401    3.52911117376474   -3.40989759729810
H        -1.19755695430468    0.96924398603467    0.48637424981243
H        -3.18452247608261    0.01352594769646    2.13894402531687
H        -3.89858030037904    1.49427744739535    1.50666184496642
H        -3.53497374598884    0.69366080493114    4.41233881699143
H        -4.94690993337782    1.45674585622821    3.67123238550410
H        -3.75626412063998    3.58192572682206    3.46148682067561
H        -3.28051653268064    3.02122650785781    5.07050585838028
H        -1.17753911139973    2.16255711150755    4.22965484238738
H        -1.33788545064400    3.61259795352357    3.24108149723563
H         1.02417321810754    7.41067756762074   -0.50593173655827
H         0.03849587792007    6.01561278887252   -0.98442170983598
H         3.10912071238061    6.00274082433384   -0.83230474781263
H         2.15663514026292    5.98517076262466   -2.33183567474084
H        -1.35312430973997    4.28209456790447    0.30779770134475
H        -3.79688072996072    4.54732950144717    0.60255369386309
H        -4.67041950200315    6.36212868522212    2.03418710857495
H        -3.11120219730654    7.92219247272131    3.13109391676453
H        -0.68358343208638    7.68067808210488    2.81122257607480
H         1.00549166048505    5.83322827038797    3.98853895382249
H         2.19087431836049    7.29300685801928    5.59552314881348
H         3.62664891418809    9.12197795138831    4.76349823888840
H         3.87843321251420    9.48332871907902    2.33945517465221
H         2.70446949600154    8.04673158408489    0.74284253274905
H         0.26727512652127    5.14870419878762   -3.20363811240105
H        -1.51722228587176    4.15496052189941   -4.54709314792060
H        -2.06648637532666    1.76404902779649   -4.32372755517774
H        -0.81394239719895    0.35525932890879   -2.72918368577587
H         0.97249963207214    1.36754461152082   -1.33419941180403
H         4.54353200651397    2.58078734396040   -0.30126577224878
H         6.53553740928548    1.84754606666927   -1.56811938846382
H         6.64184171300218    2.19990207057082   -4.00760502369697
H         4.75818653684692    3.26808739809079   -5.18418932472164
H         2.76407430220888    3.98626997969775   -3.92775014037371

