69
CSD_code = TOWZUA | q = 0 | S = 0 | Stoichiometry = C33H29FeO5P | MND = 7
Fe        7.59511431615281   -1.44261662827903   -8.77305425441997
P         7.84304291769197   -2.51524343612088   -6.82285525076754
O        11.26139571957331    1.08201918161460   -8.98844072937411
O         5.24618416114033    0.15033005019066   -7.44320638488894
O         5.69260413842861    0.42427924761962   -5.25937305461971
O         5.35450902482014   -2.75158638570628  -10.05571059936751
O         8.83019467251525   -2.94985226663902  -10.91040837197630
C        10.65503218831292   -0.20182099121012   -9.05274408403336
C         9.23770610906414   -0.03522114108838   -8.54435675789607
C         8.27949932990549    0.43969759836241   -9.47317857606890
C         6.93163360795682    0.54423435186428   -9.08375510086693
C         6.60787183004191    0.19409686115301   -7.75106754958476
C        11.43984990918506   -1.21861755386668   -8.22885232165102
C         4.89459877650780    0.25331259982234   -6.15653022251515
C         3.43410262227822    0.14086467578243   -5.95571354400863
C         2.93152690261319    0.29061619168154   -4.66545068648619
C         1.57519482697318    0.17377085400749   -4.43252089390675
C         0.71307800424781   -0.09285936755490   -5.48467116659326
C         1.20929267558063   -0.24179426108245   -6.77042682974852
C         2.56549294717116   -0.12625669164209   -7.01064189684783
C         6.19523755192714   -2.22987075603373   -9.46786071171074
C         8.39030372021148   -2.38670569439443  -10.00763236317183
C         6.35372092416507   -2.60413991238447   -5.75699253282875
C         6.38658642383950   -2.53190690625596   -4.36794376437509
C         5.21532209149836   -2.63923312319741   -3.63953107949410
C         4.00484419929168   -2.83617652870663   -4.28151624239743
C         3.96630495790366   -2.92526375512938   -5.66282658074449
C         5.13298604194096   -2.80301220522680   -6.39383236010697
C         8.24448892250472   -4.30566444632711   -6.89938774215776
C         9.09290434130324   -4.74363358305173   -7.91157853491314
C         9.46181890111761   -6.07290783523673   -7.99915465687414
C         8.97836549845808   -6.98542363224347   -7.07526578243183
C         8.13365048236329   -6.55874287385110   -6.06430155995746
C         7.76998161767129   -5.22663188642577   -5.97058492181524
C         9.10469381532758   -1.95498944407339   -5.62308464848745
C         8.90519114557266   -0.74201313613739   -4.96380794667019
C         9.87417747343258   -0.24297241535232   -4.11371473465409
C        11.05330634283103   -0.94340045430201   -3.91330003927298
C        11.25348749804533   -2.15166137056363   -4.55888417137845
C        10.28810732264120   -2.65469746766725   -5.41392898328359
H        12.19891827551207    0.99138930743428   -9.19100578999105
H        10.62673814144431   -0.53931645629368  -10.10318072586504
H         9.23941205089862    0.37585358384528   -7.53774090961475
H         8.55962244252363    0.64670884066568  -10.50055691559499
H         6.15489862031746    0.82079678423516   -9.78653364877923
H         7.19090105239595    0.60383625360173   -6.92885044386063
H        10.91914919217229   -2.17196519344801   -8.23243750352253
H        11.52947106421677   -0.87221149347366   -7.20187271317120
H        12.43786500934768   -1.36102242025705   -8.64132764460592
H         3.62452618415165    0.49394498539945   -3.86329799033144
H         1.18642420944688    0.28996628351751   -3.43166362630843
H        -0.34777660745450   -0.18522333643231   -5.30290027856089
H         0.53431461566673   -0.45054244593546   -7.58745513218826
H         2.95973294804031   -0.24794556373642   -8.00740313820708
H         7.32406451793489   -2.38800728148088   -3.85145584581193
H         5.25085293744829   -2.57094848209690   -2.56198378582073
H         3.09267606207987   -2.91684313689917   -3.70905104015545
H         3.02508377222904   -3.07896297195496   -6.16992981728134
H         5.10844050031543   -2.85632495163332   -7.47292586278114
H         9.46124027007218   -4.02519461249144   -8.63035039506937
H        10.12240742807673   -6.39780571930360   -8.78960899306658
H         9.25722138106981   -8.02624173467502   -7.14526451017913
H         7.75400243883047   -7.26736903996264   -5.34293920140728
H         7.11278071716283   -4.90658663820749   -5.17518131132216
H         7.97301479014748   -0.20863464084258   -5.08569169433874
H         9.70855486814986    0.69527343596111   -3.60475650880772
H        11.81135446933226   -0.55023597662014   -3.25195733190000
H        12.16744634644871   -2.70567579556895   -4.40041235908470
H        10.45695834990947   -3.59601704580091   -5.91687725004255

