116
CSD_code = TOXFUH | q = 0 | S = 0 | Stoichiometry = C59H49NO4P2Ru | MND = 6
Ru        1.44190069689343    2.45748802916647    2.81090692992306
P         0.84552415355518    4.39817044871449    1.73684240936309
P         2.25910028252339    0.82844844876968    4.20842077616428
O        -0.24217694248007    0.53054262248765    1.29821516710347
O         0.11885503512530    2.88021644025289    4.54161113526250
O         2.02395246681428    3.91888805262603    4.28464815375381
O         2.32803877828905    1.01744525082450   -0.05389576642303
N         3.98640035655089    0.10377623711952   -1.82799602201879
C        -0.24042194956715    5.42128520463315    2.79021800182218
C        -1.42383334216683    4.78942440597656    3.17397742218392
C        -2.29353846494515    5.40673896431998    4.05019879689642
C        -1.98852410804822    6.66105639031429    4.55680250022742
C        -0.82888372703523    7.30288906534481    4.16007858758919
C         0.04438837685464    6.69066979860040    3.27583670368288
C        -0.10406845532172    4.40669512163581    0.18280756574536
C         0.02056965683294    3.32829945236910   -0.68622820388963
C        -0.66727323230086    3.32555257088807   -1.88692783697857
C        -1.48111338054391    4.39468855401446   -2.22429541191042
C        -1.60152202519448    5.47323024540495   -1.36250208410923
C        -0.91365925613135    5.48413286256286   -0.16287449646092
C         2.26753232696019    5.45369702290063    1.30766361703695
C         2.66777078698977    5.58860865850858   -0.01837134619823
C         3.80721818678142    6.30633198755780   -0.33345459942168
C         4.56039670527518    6.89596791343890    0.66732179512119
C         4.17874984318894    6.75039640149439    1.99075821948632
C         3.04742059790772    6.02375215932560    2.31261581438455
C         3.65587867729382   -0.17622003190363    3.61057265340660
C         3.45507644492476   -0.76087720084002    2.36214556302122
C         4.44826562289979   -1.52349287432143    1.78040623182039
C         5.65065422601921   -1.71174714352812    2.44430093230290
C         5.84458598491738   -1.15428079879270    3.69622245158325
C         4.85069441816724   -0.38970323383986    4.28442859395075
C         2.80405949724197    1.53754461863641    5.79346433595038
C         1.97944267958030    1.50119313234124    6.91358252221689
C         2.32462319319172    2.20649151128660    8.05309845605806
C         3.48599742159044    2.95897684610837    8.08142102285132
C         4.30655259203167    3.00713469296440    6.96505521379904
C         3.96507372028040    2.30903132433769    5.82276518881512
C         1.11449393153170   -0.47971462758167    4.75435258246985
C         1.59951689564193   -1.63703532732956    5.35734931295259
C         0.71972310475497   -2.61610874830904    5.77883432517013
C        -0.64500440584388   -2.44761138740721    5.60269511734692
C        -1.13068273730491   -1.29569671232764    5.00696780372685
C        -0.25480779597552   -0.31195643113707    4.58189028961644
C         3.16709690869429    2.39098869819472    1.67618180853450
C         3.37666883517387    1.66112205991345    0.49715596840234
C         4.65427070551311    1.59448271340360   -0.09379415540922
C         5.71496120754392    2.30488462795122    0.48777044932400
C         5.52499092933674    3.04903571322827    1.62697531053240
C         4.25042516700433    3.06600478889675    2.20451187370541
C         6.64258448025407    3.82092427873484    2.26433290119940
C         4.90384710561439    0.78870250895984   -1.25598367602601
C         4.22243783544255   -0.75064245501759   -2.88784548176818
C         3.22873675081092   -0.87661473388138   -3.86065340165610
C         3.39520805799563   -1.74690454278649   -4.91630018574629
C         4.53767643669463   -2.53430264708348   -5.02512318764382
C         5.51130048361241   -2.42561096690264   -4.04078613878246
C         5.36468031436499   -1.54614198740321   -2.98644884422506
C         4.69233627171509   -3.49730630820869   -6.16283675264705
C         0.49377688600072    1.26144429197475    1.79861749722495
C         0.68713662215257    4.53452610790537    6.14222478072501
C        -0.50400935083596    4.35728356382886    6.83542673346724
C        -0.76495186275596    5.11717750524352    7.95902397293367
C         0.16016194222603    6.05377343388499    8.39249501174174
C         1.34928969035761    6.23011350890952    7.70317661857366
C         1.61433033542747    5.47282109499126    6.57870275194351
C         0.95755623661204    3.72860776061818    4.92511559632145
H         2.67193061133442    0.52121950774343   -0.84443593114022
H        -1.63993944296542    3.80055122979151    2.78188613597607
H        -3.20447216534629    4.90896578058346    4.34900261104676
H        -2.65669612046988    7.13848481830299    5.25839994343702
H        -0.59699463882877    8.28601209380638    4.54399421163034
H         0.94060319710730    7.20681240144468    2.96243706670202
H         0.66104754692076    2.50156315055733   -0.40957233490046
H        -0.57074137517072    2.48563171273330   -2.55875578353629
H        -2.02265002899715    4.38992876008290   -3.15903646966866
H        -2.23341370539520    6.30896682860590   -1.62659099903450
H        -1.00634191330777    6.32736161237691    0.50820473401724
H         2.08844049004760    5.12571981110240   -0.80408390238148
H         4.11012978705724    6.40351946087242   -1.36577276011073
H         5.44828943943384    7.45876918508502    0.41804934237008
H         4.77009050867843    7.19980294651291    2.77673798309350
H         2.77630595695510    5.87632940138210    3.34827755249930
H         2.51037685210628   -0.59944207116701    1.85805445845167
H         4.28948056237892   -1.96555521623847    0.80769567815792
H         6.43498692434934   -2.29858839419445    1.98895577556990
H         6.77592405058958   -1.31424976681469    4.22061496494833
H         5.00871541012711    0.03184634238889    5.26749341121468
H         1.06161829776249    0.92934239199018    6.88684825813196
H         1.67596936980042    2.18022212560362    8.91665318298911
H         3.74613569062611    3.51756766967975    8.96854403363126
H         5.20778146936860    3.60367559960281    6.98246034870794
H         4.58377753614250    2.36688655663963    4.93678872416764
H         2.66505054776830   -1.76628033247016    5.49051532516255
H         1.09788711327777   -3.51426978446110    6.24529607776455
H        -1.32906536804996   -3.21638254846292    5.93134570769332
H        -2.19419292517087   -1.16454006322925    4.87115817079120
H        -0.62503667301328    0.59746350600433    4.12589862794791
H         6.69102070716420    2.25319921867436    0.02470412467328
H         4.11584311819325    3.65306721327288    3.10662001474840
H         7.55111762511435    3.75136953825774    1.67098721944330
H         6.36717813768613    4.87057051190208    2.36025695547156
H         6.85261502335937    3.43610392005230    3.26252622277209
H         5.93328150371461    0.80277085742341   -1.63611071851200
H         2.34196255633145   -0.26613047193028   -3.78045697185081
H         2.62468540744570   -1.82533680824259   -5.67035378804313
H         6.39951652223581   -3.03951194947308   -4.10029767972864
H         6.12219708325019   -1.48833996906205   -2.21721598533988
H         5.73249821536781   -3.78880199997346   -6.28795734055586
H         4.10703746000387   -4.39804207838574   -5.97362184331876
H         4.33511983378772   -3.05722528211147   -7.09184582433056
H        -1.20849952675895    3.62143231710981    6.47757057299339
H        -1.69034128463428    4.98234816269214    8.50008575816480
H        -0.04588630419023    6.64803982918116    9.27112932599302
H         2.06863639834862    6.96013352017400    8.04539041081020
H         2.53786169231759    5.59262982064110    6.03145552473139

