109
CSD_code = TOXFOB | q = 0 | S = 0 | Stoichiometry = C54H47NO4P2Ru | MND = 6
Ru        0.96701505574538    1.10349065263919    5.08970032199590
P         1.21565335742948   -1.17666395670443    5.13546579157612
P         0.65371565018248    3.36345004223782    5.37444092484268
O        -1.36060960672363    1.39031185187399    2.77041161310852
O         1.53658604072432    1.45969833391414    2.19401734824366
O         2.99152218167312    1.47659793525507    5.98356889607552
O         1.29082632466341    0.90905444371597    7.22522035192992
N        -3.74223535018644    1.91744152599432    1.89739655162518
C         0.16421345874268   -2.01798461203829    6.36038742999976
C         0.46237310777868   -1.95158896870418    7.71997049054845
C        -0.40214493171634   -2.50089730158230    8.64903550314672
C        -1.57704887212600   -3.10697385379343    8.23424595543223
C        -1.89087225605047   -3.15341303462317    6.88573847284426
C        -1.02909120691515   -2.60773307644862    5.95219854958855
C         0.89554798281578   -2.18092498294679    3.64713180203480
C         0.12053431812854   -1.65183870823307    2.62203504434041
C        -0.15613728932480   -2.41412446930010    1.50029974790942
C         0.33901886935815   -3.70321538733323    1.39583646324858
C         1.10922526725694   -4.23418081440771    2.41851315053674
C         1.38611694874822   -3.47895361880466    3.54285950481028
C         2.91639262451996   -1.71542080209463    5.52016496068043
C         3.26510488995629   -2.72883447068226    6.40590397776959
C         4.59949554158289   -3.04176759342711    6.60361201582467
C         5.58811274198072   -2.35578797586862    5.91827760827480
C         5.24392574104830   -1.35920207231097    5.01812662975133
C         3.91439692025263   -1.04173175138198    4.81849726994442
C         0.74879035146889    3.86778217162976    7.12159252967534
C        -0.15535784902006    3.28559478549048    8.01007965696068
C        -0.06859030861466    3.54963738761220    9.36340983941172
C         0.92892793208859    4.38295407161641    9.84581186251047
C         1.84226806382606    4.94514547532265    8.97046912762898
C         1.75970728271426    4.68635155741539    7.61285838414034
C         1.83334483287855    4.49358920946329    4.56868823931788
C         3.01210366523536    3.99531410658469    4.02733371099335
C         3.90736499159962    4.85320113059807    3.41109203574639
C         3.63038139567063    6.20745477894252    3.33338745753739
C         2.45689230392553    6.70899560860527    3.87632396248402
C         1.55929306740468    5.85782411369846    4.49164646618698
C        -0.91360021953381    4.07427052397687    4.76861649518783
C        -1.03515680162643    4.15160412053046    3.38194779454512
C        -2.19848751284422    4.62389408494068    2.80776498053792
C        -3.25523189777154    5.01968363597954    3.61286994634123
C        -3.13869527624858    4.94764324234845    4.98949786422830
C        -1.97177440098298    4.47897823204478    5.57017308663013
C        -1.08710723795630    0.87441440812405    5.05762829041728
C        -1.92604735043029    1.17243639588780    3.97344844462442
C        -3.32403298484332    1.23460587430707    4.13845444448061
C        -3.87746830694120    0.93891278546840    5.39385129609333
C        -3.07588882243746    0.59733245225510    6.45642345236491
C        -1.68808286086144    0.58617811309247    6.26808441068636
C        -3.64302619092367    0.26257901578957    7.80477156618939
C        -4.18744859961930    1.63298045855310    3.06306322596289
C        -4.53094625905723    2.40551797137932    0.87446776226137
C        -4.17862504187998    2.07034716018339   -0.43512009998525
C        -4.90006369660328    2.56702058650558   -1.49865980652704
C        -5.97475788303246    3.42937096731239   -1.29815519503012
C        -6.30546804229708    3.78088208373639    0.00355080674605
C        -5.60086898663376    3.27736095180370    1.07942291466447
C        -6.74214383171927    3.96401060535069   -2.46899000125573
C         1.19883335743183    1.30592953975025    3.28423598036535
C         3.37748917415137    1.28079136773762    8.33862138055716
C         2.49836902664671    1.22381692164366    7.10383676421883
H        -2.09230876098766    1.63917691526326    2.14386864662524
H         1.36170658788043   -1.45068203147417    8.05056867668983
H        -0.16312590628420   -2.44890385265106    9.70179909745898
H        -2.25129747402096   -3.53379334218122    8.96295513048699
H        -2.81436786534957   -3.60994528756138    6.56050807447794
H        -1.28185345164090   -2.63018368582402    4.90158338161466
H        -0.25806957705163   -0.64311181398021    2.71388572921614
H        -0.75777641466542   -1.99857189004807    0.70567753063225
H         0.12704653326332   -4.29633574635002    0.51817667744353
H         1.49561628932406   -5.24006018850976    2.33850946064281
H         1.98737086931016   -3.89515881996725    4.33939143797844
H         2.49923981692482   -3.27583535088415    6.93871188297725
H         4.86717376897594   -3.82664343216598    7.29685955047209
H         6.62723118648112   -2.60045245370298    6.08391592884579
H         6.01378663950670   -0.82837769295670    4.47781185876994
H         3.62831824683079   -0.25957558890819    4.12235359796972
H        -0.90778247840213    2.60728962315297    7.62848557822544
H        -0.77161607464498    3.09595273255469   10.04754507156498
H         1.00081055536597    4.58405206230281   10.90493259299159
H         2.62924664144407    5.58329403084538    9.34628508816068
H         2.48568183925653    5.11571919914805    6.93638532033413
H         3.22582188502176    2.93689374974076    4.10307378505413
H         4.82186543289800    4.46338812557489    2.98879058758710
H         4.32810515606112    6.87582127642288    2.85016705640686
H         2.24242136539365    7.76637368316837    3.81796488939550
H         0.64120741801508    6.24340406188234    4.91504034737025
H        -0.20953346381541    3.82548730083138    2.76312231407598
H        -2.28954355195407    4.67612206819930    1.73288068242232
H        -4.16641580957093    5.38670333231653    3.16360487959934
H        -3.95956063317018    5.25888620577726    5.61972696838132
H        -1.89024713072429    4.44059372154546    6.64656207345760
H        -4.95157601843999    0.98574873287326    5.51183403714883
H        -1.06876523669833    0.33197225414847    7.12221225199315
H        -4.72927236878105    0.22423788178924    7.77199953315061
H        -3.26643158152365   -0.70245771826443    8.14212367004224
H        -3.34651179179497    1.01079822950804    8.54035327833448
H        -5.25889486223241    1.66903575964150    3.29734901016590
H        -3.34505843548695    1.40294317432797   -0.59427304862084
H        -4.62577923668235    2.29038653745663   -2.50700995886927
H        -7.12786723217509    4.46079441272813    0.17955738751175
H        -5.85889108120603    3.57624456765766    2.08557453764982
H        -7.52741565689114    4.64220086292321   -2.14437035149961
H        -6.07835672521294    4.49897700865173   -3.14740082082985
H        -7.19835861139561    3.14710454967765   -3.02764597253231
H         4.07157813516343    2.11276111373656    8.25486444576938
H         2.76170796649008    1.38866848442097    9.22781636936442
H         3.95150850477166    0.35684400672355    8.40331628276578

