75
CSD_code = TOXFIV | q = 0 | S = 0 | Stoichiometry = C26H44Cl2N2Ti | MND = 12
Ti       15.39900698800994    1.39788049868322    3.20693467082051
Cl       15.91405661694392   -0.18092646244487    4.70994895825945
N        10.21749735323354    1.00993264309987    3.71223921555600
C        13.16256163258362    1.15761643873130    3.80510784169273
C        13.79479136208348    1.75723980987704    4.91830739706547
C        14.27588765390743    3.02169687370617    4.53120962115319
C        13.90727798798329    3.23210099530998    3.18248900107878
C        13.23474658983228    2.08154308528078    2.73048903408002
C        12.41200231117007   -0.13512256765175    3.81623742107120
C        11.01469456479702    0.05747821279062    4.44780813419098
C         9.56429857248934    0.48207889971738    2.52773699965303
C         9.44700306877316    1.55784462355979    1.44385855266022
C         8.19496575497365   -0.16823677776761    2.77735556293846
C         9.52274055904320    2.02759431060570    4.47976993092478
C        10.51083286911904    3.11834472887304    4.90617715110143
C         8.74581841697507    1.51709763584479    5.70501583306509
H        13.84131256270067    1.34089558306378    5.91664226893126
H        14.70317097608435    3.75865152275976    5.19870483550096
H        14.00676268466195    4.16228769086328    2.63953354929944
H        12.75978096986363    1.95445549674172    1.76620152393748
H        12.95897757555275   -0.87922857026243    4.40420419234371
H        12.30958420524434   -0.50920933982933    2.79547324126746
H        10.52810708158887   -0.92815539130059    4.51332209427033
H        11.15819225173805    0.42608742107688    5.46277557602046
H        10.23462630953428   -0.29404303308257    2.14336501081617
H         8.66049057654142    2.27241193591526    1.67322372610811
H         9.21409876752847    1.09581290670555    0.48777397328910
H        10.38577519671336    2.09671427038614    1.35516923339440
H         7.83690436938277   -0.63359279076312    1.86215517683214
H         7.46386035020496    0.57214002090705    3.09296054710210
H         8.27020540234349   -0.93705831776016    3.54348202934324
H         8.80090343849316    2.48709295525496    3.79965013919343
H         9.98136814240347    3.93834035580217    5.38531321155801
H        11.04064356733787    3.49768485805314    4.03683019396046
H        11.24577410246182    2.72608735562164    5.60409378522556
H         8.11389352779199    2.31371555758911    6.09101638369746
H         9.41881358470918    1.20804528340581    6.50093860921518
H         8.11367945871534    0.67348701517029    5.44334224973514
Cl       14.88438979725457   -0.18153349265890    1.70436775891511
C        17.63548030383221    1.15762800392179    2.60862319712512
C        17.00309351059032    1.75710215095333    1.49543779641657
C        16.52192906208801    3.02155563504600    1.88246822475941
H        16.95648936950187    1.34066444797438    0.49714716276190
C        16.89063750763112    3.23209575274622    3.23115056226654
C        17.56331877222242    2.08164434157346    3.68316863517912
C        18.38611196051002   -0.13506964136571    2.59755987402196
C        19.78349172272970    0.05756110961825    1.96614037152999
N        20.58065416752796    1.00993561143013    2.70184390943559
C        21.23376252005633    0.48197853626112    3.88635359956842
C        21.35100567562111    1.55764319865783    4.97033015792701
H        22.13758913707343    2.27219136021063    4.74111792746612
H        21.58378120509181    1.09551000166136    5.92639238614684
H        20.41226056232135    2.09655792602494    5.05896982181572
C        22.60310448554346   -0.16833550240018    3.63679941599303
H        22.96105301515933   -0.63381495157102    4.55198040319602
H        23.33427072007281    0.57206643090716    3.32137423182324
H        22.52792963012537   -0.93704896167657    2.87056673195330
H        20.56337742472576   -0.29417459647200    4.27060827900531
C        21.27544746074470    2.02769221999652    1.93446608726696
C        20.28732223007193    3.11835750300548    1.50791457342870
H        20.81680435213191    3.93848205320506    1.02901061907994
H        19.75723154585700    3.49752597565733    2.37716186811272
H        19.55262213122766    2.72608744801632    0.80975190316087
C        22.05264945081086    1.51734074387823    0.70933654569355
H        22.68434077367387    2.31414099850666    0.32331668939845
H        21.37982976310060    1.20798654197379   -0.08661505734639
H        22.68505115059082    0.67397257427711    0.97114103577380
H        21.99711243389797    2.48723867711693    2.61473112253291
H        20.27006284014413   -0.92808110144268    1.90060972887200
H        19.64010590798993    0.42623762644270    0.95118566772616
H        17.83923258183005   -0.87918980949556    2.00952384929178
H        18.48844335505423   -0.50916249915609    3.61833020563994
H        16.79115393274085    4.16232845260563    3.77402601132093
H        18.03842461477737    1.95468361246830    4.64740718617738
H        16.09452752190937    3.75841588741271    1.21494463978979

