40
CSD_code = TOXMIE | q = 0 | S = 0 | Stoichiometry = C13H14N4O8Zn | MND = 6
Zn        5.76121021446073   10.40075664362318    0.18473086168015
O         7.64508087097477   11.36583454461275    1.47897658722818
O         7.42622054854152    9.58217827063999   -0.66094216297423
O         5.67782787970558    9.72639387400767   -1.84988398032331
O         7.49759180281143    9.03745983471984   -2.71865720737901
O         5.97155449049944   12.19472268297774   -0.68466074006061
O         4.85257839453133   13.55357547091272   -1.88631354719209
O         3.84185521694901   12.11297916312433   -0.67734528680876
O         4.67057095976834   11.68173578911235    1.85913276348395
H         5.23023236787753   12.44226450902195    2.03911751646350
H         4.00257212948055   11.98047408478608    1.21897506363357
N         4.01104371569587    9.26716451717666    0.34853903477372
N         6.16796305436093    9.23412072885991    1.89255087074561
N         6.88115762516230    9.44604434557617   -1.77780511041708
N         4.86448337899442   12.63357753472692   -1.11928707206178
C         3.98980089453516    8.49278759735916    1.43669494148514
C         2.88686132393504    7.69982988014922    1.74977722213753
H         2.89501616836988    7.08817229634630    2.63891078376311
C         1.79492748237561    7.71300682391704    0.89784667197547
H         0.92637481335638    7.10873899883056    1.11332268805690
C         1.84146874969231    8.51033111419284   -0.23457329880755
H         1.01624000257062    8.54335286375205   -0.92706816111196
C         2.97696476771903    9.27759883053936   -0.46824440315078
H         3.06207357400404    9.92182921546015   -1.32943514460681
C         5.18568776469133    8.50667569097500    2.25278686899760
H         5.19019653026384    7.88747730215435    3.14946061449674
C         7.39576718736030    9.27220370394426    2.50267770880920
C         7.90424630406667    8.23991876139522    3.29719189560227
H         7.29975453960504    7.36581543540934    3.48443647930361
C         9.18831932812731    8.30152000871622    3.79328946981119
H         9.57518572054357    7.49392653607328    4.39479065037175
C         9.98752834693786    9.39626399315333    3.49722249199754
H        10.99714077455140    9.44353945583628    3.87577336784623
C         9.51005937517787   10.42755381834420    2.71002694826074
H        10.15736672564967   11.25995489522844    2.48755450605435
C         8.21245268520551   10.38833781392333    2.20599796633616
C         8.48699836450617   12.36926658497892    0.93628956814448
H         7.86843289230599   12.92033235055300    0.23255629266324
H         9.32487929216156   11.92367410862836    0.39708446590186
H         8.85271374247596   13.03710992626327    1.72250181486757

