57
CSD_code = TOXSOO | q = 0 | S = 0 | Stoichiometry = C27H24NiOP2S2 | MND = 4
Ni        1.61920606291217   14.79626915293055    1.24634670043348
S         1.90218556225378   13.10407558032731   -0.12006471135741
S        -0.45317959108707   14.20351365972104    0.84026561974859
P         3.68894541451573   15.47582483634001    1.32714793239900
P         1.22234927890353   16.25373979692807    2.81847711022932
O        -0.46611480708593   12.13933055251216   -0.82630307138113
C         0.16227167773789   12.93822954260791   -0.20034753101182
C         3.94974435843439   16.55139895849934    2.81456644768038
C         2.68444293185699   17.37322818592179    3.03410260447447
C         5.28094033435264   14.66579889994553    1.03235697029110
C         6.28113505863512   14.54720680059848    1.98999072691159
C         7.45414681156661   13.88171275405420    1.67837265719001
C         7.62864023025102   13.32285200442614    0.42342851047243
C         6.62325444729645   13.42036020037225   -0.52640309546396
C         5.45098931350619   14.08409803741836   -0.22300801101175
C         3.63203407130203   16.71571266768939   -0.00569679117189
C         4.73591274433788   17.47898219597446   -0.36972506929720
C         4.61798301412450   18.41187587236852   -1.38380376161075
C         3.40672226911903   18.58388238890850   -2.03647137702337
C         2.30597387712085   17.82023577122845   -1.68141480387350
C         2.41896617623200   16.88599131727073   -0.66850590322789
C        -0.22002333125401   17.25732196029222    3.25441685178815
C        -1.39917473350560   16.55961314547011    3.51128455536894
C        -2.55615593638613   17.24521856367068    3.82452966082851
C        -2.54754284626251   18.63090460364651    3.87260723129189
C        -1.38294678914719   19.32749635286158    3.59689072729348
C        -0.21985287069912   18.64691480755630    3.28075073454713
C         1.38897773942536   15.16203377845564    4.26672403009440
C         1.23687433148343   15.61568945324585    5.57237526314600
C         1.38918852905715   14.73224075511581    6.62545093944678
C         1.68889810187718   13.40055262129721    6.38154722438573
C         1.83464894633090   12.94296351213620    5.08148619709558
C         1.68323421266234   13.82223336624432    4.02533164081100
H         4.82707385499562   17.18884795866786    2.67414381676812
H         4.11786205514731   15.89452876973882    3.67383337999982
H         2.66784349765397   17.83399965071992    4.02565638558775
H         2.61658076044892   18.15727503654971    2.27332286915440
H         6.15015281429063   14.97086270906800    2.97492540260846
H         8.23396246667261   13.79611322768841    2.42117083769018
H         8.54565176863179   12.80330811268542    0.18836875591481
H         6.75329816111329   12.97353217201714   -1.50059025758980
H         4.65056707425872   14.15387067985964   -0.94750524382285
H         5.68200480381789   17.33093539437817    0.13318174187092
H         5.47400181180153   19.00498440626247   -1.67082921251207
H         3.32345241157630   19.31166871646465   -2.82994226418476
H         1.36637764578152   17.94992936245405   -2.19725530541877
H         1.55372677336434   16.26080872489844   -0.38839492396535
H        -1.39423070305860   15.47936899096255    3.45257774076261
H        -3.46718818295964   16.70208574061330    4.02592342803141
H        -3.45155718282825   19.16867455773303    4.11667377962109
H        -1.37999960591671   20.40752579224795    3.62390285482194
H         0.68088391227162   19.19944841887101    3.05706877769385
H         0.98925057051109   16.65234242191281    5.75659228882959
H         1.26954701229225   15.08060194122061    7.64096031980881
H         1.80240272832607   12.71593878730862    7.20897282884667
H         2.05937379934313   11.90370352045277    4.89389840739664
H         1.78108716259572   13.46574281121380    2.98543738258790

