31
CSD_code = TOXYAG | q = 0 | S = 0 | Stoichiometry = C14H10Cl2N4Pt | MND = 4
Pt        3.70220580978402   -0.27082773434321    1.18657757337276
Cl        3.40016970539943    1.90295677266826    1.58205004439958
Cl        5.14812313737172   -0.32517921539903    2.89212715203126
N         2.39318487183739   -0.36464788762774   -0.32713804069797
N         3.94502300093334   -2.16648266422028    0.69789827498533
N         4.34029638432121   -4.68191647085654   -0.36619415405903
N         2.24063764359166   -5.24395053739410   -2.40060489707708
C         1.56418512786751    0.60661146112061   -0.70641596653726
C         0.58217958836865    0.41176664192136   -1.65760825867470
C         0.43143720550774   -0.85174779531562   -2.21661742994133
C         1.29569056169433   -1.85933951775404   -1.83309174040964
C         2.29782820098065   -1.58712678327518   -0.90176882005227
C         3.26557438249217   -2.55851336304425   -0.41121930077122
C         3.55105868806721   -3.81479426779600   -0.97857052646892
C         4.90499867182703   -4.31893835532802    0.77541154253248
C         4.76436225059626   -3.04110609976988    1.28634083631412
C         3.08433271095832   -4.22430022373666   -2.32490837768249
C         3.58848445198411   -3.57386029622736   -3.45072501135807
C         3.18624902344306   -4.01741590864754   -4.69877173361914
C         2.30027902408529   -5.08110607578821   -4.77833721588303
C         1.85972228648252   -5.65649566715309   -3.59564451093261
H         1.70675603064800    1.56164249680619   -0.21612613531439
H        -0.06342793958500    1.22735674248162   -1.93903313341512
H        -0.34960424731512   -1.04979880986119   -2.93387864627196
H         1.18372944800275   -2.85422941196310   -2.22783403867907
H         5.51297033264415   -5.06284858352521    1.26792491864277
H         5.29546042883717   -2.69244519908223    2.16231585224547
H         4.28063573939492   -2.75290479119961   -3.34322051094841
H         3.56028861556563   -3.54221404793712   -5.59361885066349
H         1.96271251187440   -5.45528075070610   -5.73171666780919
H         1.16655635233823   -6.48686365704663   -3.59720222725651

