67
CSD_code = TOYVOU | q = 0 | S = 0 | Stoichiometry = C30H28BClN6Ni | MND = 4
Ni        1.99893450269696    4.49650294207344   10.55954291824097
Cl        3.71472256635315    3.45235656228647   10.91827341354202
B         1.50089470259400    7.51607568218004   10.76535572045857
H         1.23087507174653    8.66058055443749   10.82245461597222
N         0.28517199518090    6.66154179504098   10.33062632540695
N         0.42177089164651    5.34422078948642   10.21458314175752
N         1.94580227709810    6.95599637991983   12.13041000993370
N         2.01973698827036    5.63063367069491   12.31744355555460
N         2.60662967625563    7.23138480015560    9.72972825455163
N         2.84516365349262    5.97151228101933    9.33961209287436
C        -1.46876310333529    8.41242951389172   10.03767297284986
H        -2.51572741464776    8.43591547423531    9.74802509127510
H        -0.89721372561947    9.03187563939489    9.34878483206017
H        -1.36797359781765    8.83566678139123   11.03545171823253
C        -0.97526589918480    7.01193011862023   10.01264019295845
C        -1.66294291264101    5.85903086662024    9.68030863599659
H        -2.68828513555101    5.79032992060688    9.38032648578573
C        -0.73851680848609    4.81268639486681    9.81987660318519
C        -0.87792222928385    3.38207995486774    9.60406397416339
C        -2.07885537275123    2.82114801144124    9.17008289341474
H        -2.93142480589208    3.45787422114162    8.99116777375260
C        -2.18212828514150    1.45803288429849    8.96678075411455
H        -3.11833078412837    1.03774185211931    8.62975236321042
C        -1.09430338717269    0.63035215186771    9.19143958808721
H        -1.17951637897912   -0.43376402583933    9.03060110403012
C         0.10601150717891    1.17335147576707    9.62403372920909
H         0.96040693092482    0.53791874801224    9.80278395590893
C         0.20969559590160    2.53389469027457    9.82722046528226
H         1.18644479576601    2.93838863844527   10.17720582743361
C         2.27805404362443    9.07025592835203   13.41756276427771
H         3.00354848315122    9.50914947299016   12.73487131972642
H         2.54885299774728    9.33557818154912   14.43579457158273
H         1.30142543119719    9.49368569589108   13.18966412293317
C         2.25758992962365    7.59098891138243   13.27736307986811
C         2.54184471025494    6.62984472732634   14.22860223769649
H         2.80971290750642    6.79442196287949   15.25212355228440
C         2.37316311629568    5.39828591109117   13.57984824344183
C         2.48606819306652    4.04347355252608   14.09997362329515
C         3.32609215732250    3.74682195639245   15.16922912017677
H         3.91333228093100    4.53235256683641   15.62110071295635
C         3.42797194980770    2.44894618025634   15.63386927093806
H         4.08731111188624    2.22482307257637   16.46005679711993
C         2.69627963498754    1.43470781057883   15.03891011994057
H         2.78419054305819    0.42072383694584   15.40095652633875
C         1.85334572810811    1.72253709244172   13.97763370286940
H         1.27992277380476    0.93360156280712   13.51249560098024
C         1.74423348661946    3.01836272651252   13.51427220048416
H         1.06799957764801    3.25181763652405   12.69628793442865
C         3.40799350684897    9.54632911282857    9.24455271031367
H         4.13803727430207   10.00215107553494    8.58138601887078
H         3.66071841364864    9.79881087106251   10.27283373171207
H         2.42538135991177    9.96151890910209    9.02726293462587
C         3.41208406339740    8.07278312513647    9.05200222181263
C         4.19318379289151    7.31545085218400    8.19989493322148
H         4.92772738309691    7.67378673844924    7.50814418817851
C         3.79685669418561    5.98677315151212    8.40896706484793
C         4.23339676835281    4.76302070634172    7.75263132897554
C         5.51280534102809    4.64406734955304    7.21803004605367
H         6.20284901638557    5.47120585054308    7.29462788159216
C         5.90725871376791    3.46408724674336    6.61556534183609
H         6.90463058435351    3.37621733647169    6.20918715362260
C         5.03338484069225    2.39229582102045    6.53993532097748
H         5.34819600770709    1.46992530125618    6.07400097358139
C         3.75581767429941    2.50453849445281    7.06437227348899
H         3.07084706200345    1.67093371334539    7.00501020506272
C         3.35599435385914    3.68296308222126    7.66192517763405
H         2.34750677813953    3.78197370712059    8.05510598299999

