67
CSD_code = TOYWAH | q = 0 | S = 0 | Stoichiometry = C30H28BIN6Ni | MND = 4
I         9.45255495419159   -0.58245249153890    5.56574729291444
Ni        7.89472906665462    0.27495899722297    3.91692850431422
N         6.85507669024225    1.04202126443756    2.64519405884283
N         5.62021221120799    0.61523856602646    2.40055905817144
N         7.40669497662863   -1.46040464199390    2.95784107010890
N         6.09444366095803   -1.73366516692774    2.91988173916265
N         6.16029622445561    0.47069579320766    5.14448449070065
N         5.10331030876438   -0.20322103213341    4.66267021030310
C         5.07095629191229    1.36721203617214    1.42901919918374
C         6.00987108396902    2.30564617670411    1.04058591611641
H         5.89034495795032    3.06072744725896    0.29114565795023
C         7.13979503876892    2.06606878324144    1.83630131255966
C         3.69234139081667    1.16502891561993    0.91652343551688
H         3.58579845992318    0.17124247974508    0.48450825434388
H         3.47530858270238    1.90683305497375    0.15271829798425
H         2.96627473020082    1.26270424421414    1.72179912742940
C         8.44407466334024    2.70600630508386    1.85370878615288
C         8.82935853796558    3.62209956403379    0.87593272481232
H         8.13869797225411    3.88827471995462    0.09057396859961
C        10.09414907974495    4.17916879872078    0.90340179174338
H        10.38202796203780    4.88524527115735    0.13861524601486
C        10.99481821875686    3.83284149202198    1.89765469741037
H        11.98307387237177    4.26690523057706    1.90938097188577
C        10.62391480038180    2.92701732291839    2.88004387014265
H        11.31567840619421    2.65129524549407    3.66193389470905
C         9.35954891314470    2.37711406809231    2.85467701507763
H         9.06360814629159    1.68217934244213    3.66792758577572
C         8.08247640832040   -2.52768726511961    2.53531998445252
C         7.16072006521436   -3.53986351062809    2.23517238568696
H         7.37451852095511   -4.52070519170117    1.86325472045814
C         5.91469732156362   -2.99613234380310    2.48529782147293
C         4.57948888591597   -3.62941405335454    2.33495859989773
H         4.04252879385313   -3.61989122989317    3.28180765459158
H         4.70062495590063   -4.65875704635887    2.00880893488524
H         3.97799619593477   -3.09519549994769    1.60100791752025
C         9.52924193437840   -2.50177493721746    2.37720291136954
C        10.16992834437241   -1.28669075373173    2.13355369855181
H         9.57949848438878   -0.37622583340340    2.04433387986143
C        11.54192793316053   -1.23351667572739    1.99145270993021
H        12.02801138720003   -0.28555339379499    1.81108865814318
C        12.29145770912553   -2.39484860080775    2.08333827308688
H        13.36527300333594   -2.35448545897044    1.97689943409838
C        11.66270685735224   -3.60678869659423    2.31624894531191
H        12.24778370574710   -4.51149913517628    2.39231307870091
C        10.28952335469443   -3.66412258130257    2.46212434235615
H         9.80311944874073   -4.60639973919312    2.66486976854806
C         5.91002989677745    0.79998834465981    6.41035013821035
C         4.64581525454981    0.30394608097215    6.75929252018439
H         4.14560813887124    0.40777130041472    7.70015914418874
C         4.16557395768339   -0.31958785595234    5.62414260189195
C         2.87061274607300   -1.02005404812385    5.42574205348226
H         2.29434473056000   -0.55089294130292    4.62975498966905
H         2.29411739068631   -0.98475949418371    6.34609227314316
H         3.03599242224668   -2.06125500470954    5.15372454952759
C         6.84417383408229    1.59807810472461    7.19039519449473
C         6.90501187496868    1.49233678197358    8.57657722360840
H         6.25616126209680    0.79712198384786    9.08769960991800
C         7.81142677615900    2.25241606267854    9.29106041103759
H         7.85894186294221    2.15963411906748   10.36620308517144
C         8.66459426394247    3.12361019590498    8.63436425469440
H         9.37581007513360    3.71066018496198    9.19629449051033
C         8.60716322617989    3.23895835809028    7.25516562212675
H         9.27127059802990    3.91813249750176    6.74001845231670
C         7.70009767034624    2.48466609713161    6.53832508173241
H         7.63639622684791    2.58694598224242    5.45934784958398
B         5.07101264110877   -0.60733209382496    3.18080459908574
H         3.98946263785633   -0.90431449700379    2.82157395918607

