42
CSD_code = TOZREF | q = 0 | S = 0 | Stoichiometry = C15H20NO5V | MND = 5
V         6.60472669044467    0.98367360864162    2.64205773303381
N         7.38100123635555   -1.92289723258477    1.42066543818665
O         6.83551241905360    2.25613986907223    3.48266002983763
O         7.70675767378969    0.96269430083330    1.37247399483635
O         7.33040607190326   -0.18320448011894    3.53718650291979
O         5.41693950328084    1.79844795407088    1.46819891770122
O         4.91556593136504    0.21633589109519    3.44181604699838
C         8.77321091183385    0.15387288152104    1.10202140897029
C         8.33564709617002   -1.24129659736013    0.57725406574840
C         7.37416296446601   -1.49405712497339    3.88361924724215
C         7.87795009987267   -2.37556072498183    2.70102210846601
C         6.01094266236400   -1.77928564118096    1.23491870965969
C         5.46170955697119   -0.90014845669682    0.28941036880422
C         4.09316529723052   -0.80844245769593    0.11399932517531
C         3.22305181982421   -1.58444994992797    0.85981368643215
C         3.75040113961447   -2.48056330319861    1.77317397779123
C         5.11507178664899   -2.58615478028198    1.95367977522733
C         3.75542369800547    3.26354462768861    0.61585808262787
C         4.23321362136750    2.20935898660817    1.58849799156502
C         3.34498904592791    1.70671402795480    2.53849587636873
C         3.74946076477510    0.68522296869345    3.40207646277713
C         2.71881010158157    0.07555414701758    4.32682286083402
H         9.35178597033302    0.02167900429663    2.03899262163648
H         9.43166156946978    0.61865068361521    0.34730360227479
H         9.23090010786257   -1.86990574673056    0.49514598911891
H         7.91054471291396   -1.13880500317552   -0.42251013633589
H         6.35001009566496   -1.79886277031669    4.16167973066413
H         8.03476151495681   -1.64851676316773    4.75555880163027
H         8.96873612866843   -2.32647438222076    2.66794536843436
H         7.59373674008264   -3.41846733848599    2.88328349267893
H         6.09359961357281   -0.26116804757310   -0.31100270682070
H         3.70367849555876   -0.11273530379547   -0.61678187883598
H         2.15520204912058   -1.49637802089532    0.72678570807276
H         3.09244438233769   -3.11183294140476    2.35400638243637
H         5.48215265277763   -3.31765030187124    2.65699861346222
H         2.85711580485886    2.92918966012823    0.10087144614967
H         4.54128994705538    3.47434104176036   -0.10606238568996
H         3.51799865205151    4.17470930054119    1.16145246187202
H         2.33238895244284    2.07340683916917    2.57741745875963
H         2.28888266540796    0.84832251696637    4.95975876526146
H         3.18468578239574   -0.68477173858315    4.94878684738301
H         1.91910406962231   -0.37382920245139    3.74194720664393

