43
CSD_code = TOZTOT | q = 0 | S = 0 | Stoichiometry = C23H13N2O4Re | MND = 6
C         1.30076331417238   14.00477536586935    2.23254313277475
H         1.59281711549796   13.84777025612259    3.26254018314799
C         1.02500133943398   12.90990731622511    1.40295912134495
H         1.12282308906027   11.91184450858873    1.79946589756070
C         0.61600518941408   13.12680786232796    0.11414736922289
H         0.36358205526119   12.30720744454351   -0.54227876577290
C         0.52822837904641   14.45016333040740   -0.36589798387655
C         0.12486054037433   14.78795950910890   -1.67276851458146
H        -0.15127283630610   13.99709757938094   -2.35324564669134
C         0.08136910403838   16.10048739347437   -2.06456634999543
H        -0.24599102780009   16.35399352926012   -3.06179720451302
C         0.47657583302654   17.12954138099368   -1.20515750552970
H         0.44768311627466   18.15114182541694   -1.55352653377527
C         0.87704653500957   16.84454677047034    0.08475802055533
C         0.86075044657261   15.48998898970695    0.53486008502074
C         2.16073789165207   18.71673318816459    0.63776423946953
H         2.17061554996486   18.98649462679311   -0.41996188608095
C         3.14694072416534   19.31041135018350    1.44924633672267
C         3.72632674091417   18.51811012481670    2.49974482742456
C         5.02447565639019   18.91877889458595    2.97147393066036
H         5.47870992750631   18.27786896230369    3.71300318992748
C         5.62713984688405   20.05292112709904    2.55190121431551
H         6.59102841197732   20.33762072572286    2.95108177858378
C         5.01412183968437   20.91424443528516    1.59944225024161
C         5.61571729409681   22.11822320379904    1.20706785871661
H         6.56961015605510   22.38707955844690    1.63841628388697
C         5.00456311020776   22.94558470495986    0.29823335543469
H         5.47245724287318   23.87183388759606   -0.00021364936433
C         3.76302791763935   22.59215303620495   -0.23141242262953
H         3.27335367309759   23.25360371637115   -0.93142944770270
C         3.15392654570333   21.41821193565259    0.14050657017047
H         2.17617129674922   21.18131023802982   -0.25331086950280
C         3.76842737611597   20.53930968615608    1.04667109315439
C         0.92306581979784   18.85314757358612    3.83085319280249
C         1.14668725732488   16.22151445777464    4.78459003419624
C        -0.85404661558452   16.85091562962887    2.91959361974444
N         1.20605145620854   15.25227489526653    1.82733277522846
N         1.38866537942080   17.73147897725379    1.02104602276631
O         3.23026155314578   17.45093089075138    2.96899782884730
O         0.86686547214248   19.92155322758288    4.23715885582861
O         1.25737341785207   15.67380680403779    5.78530166694498
O        -1.98865795900768   16.71409253651633    2.79479173940341
Re        1.07274082394633   17.07905854353377    3.03477430591838

