84
CSD_code = TOZTIL | q = 0 | S = 0 | Stoichiometry = C41H33N3O4P2Pt | MND = 4
Pt        9.01546608841561    1.46565944535838    3.09509485953329
O        10.58771284078013    2.28117242809780    4.12521776252861
C        11.49315619768863    1.43825203230772    4.49142338092638
O        12.52430902055397    1.77492560158136    5.06203683144854
C        11.18988098302555    0.00312514502117    4.20640383363075
C        12.01547092198848   -1.03284939974668    4.56372564016293
N        13.26584423268725   -0.85768803019329    5.06557511818394
C        11.55328784154706   -2.40532384670446    4.36066316084414
O        12.17554007692947   -3.40221734483739    4.68007951184478
N        10.30171597188450   -2.49461305552169    3.78328825927384
C         9.50405205190423   -1.43663901684824    3.40272648563743
O         8.39345630890572   -1.65012509498021    2.88179167967813
N         9.96291410405213   -0.21208627597509    3.61772992386133
P         7.54832286449699    0.30957248578054    1.75872679932214
C         7.99252227453768   -1.80890691233398   -0.08590143978489
C         8.80492360948638   -2.51096537163929   -0.95947540197858
C        10.10647371110540   -2.09826290765657   -1.19341722263228
C        10.60380659876951   -0.97716444790369   -0.54835961712344
C         9.79455764633482   -0.27138223529903    0.32217527441625
C         8.48565484106005   -0.68296453325707    0.55650114082165
C         5.04558183638845   -0.92784696850896    1.47794566271709
C         3.90534759796305   -1.53754202613801    1.97141273024979
C         3.74886367018195   -1.72452128878141    3.33488808796724
C         4.73686565969444   -1.30279947629445    4.21041286747140
C         5.88309051785513   -0.70649304187973    3.71982924488489
C         6.04583322575040   -0.52149467231265    2.35250925382877
C         7.28761374509094    1.74246033860455   -0.68299595376106
C         6.65251616876164    2.59242307270028   -1.57034210567967
C         5.45927046295930    3.20046241757438   -1.22180207144696
C         4.90563335537720    2.95289916942822    0.02283669146512
C         5.53430853384701    2.09296487153675    0.90357802371384
C         6.73259812152262    1.46978875353752    0.56374744880524
P         8.25786534274204    3.59365984826749    2.83604156886339
C         9.16285889235014    4.64394334229071    5.19223218842480
C         9.90457575075389    5.47104493873992    6.01041038013507
C        10.72696390003514    6.43794327429495    5.45230434113556
C        10.80367667324501    6.57309054079486    4.07743726198712
C        10.06506602238958    5.74309547726276    3.25064823393099
C         9.23998877136938    4.77656799280970    3.80784130367088
C         6.12737117592567    5.29531337595904    3.53298633876399
C         4.87700963845911    5.54705575084248    4.06787917000478
C         4.10745065137302    4.50630522346580    4.56493806822452
C         4.59566648725848    3.20996893418979    4.54647025557282
C         5.84273770092127    2.95432109503302    4.00536266498747
C         6.60269781570657    3.98901200080419    3.47352842550500
C         7.51129197656681    5.06945990348787    0.49691753058570
C         7.79075407085917    5.50823995582958   -0.78680126925507
C         8.95095146120745    5.11004524917039   -1.42816437920593
C         9.84046767815182    4.25737237461917   -0.79170968495137
C         9.56695014703883    3.81897598789881    0.48822029736314
C         8.40652617021674    4.23038683741895    1.14289545908253
H        13.67911587459611   -1.65643342086333    5.51824735895920
H        13.47903219316401    0.08285846846586    5.37651994937302
H         9.93020074378411   -3.42328777348158    3.62199895612282
H         6.99102725477821   -2.15216811785815    0.12197816803975
H         8.42289059801434   -3.39200879354681   -1.45438076720116
H        10.73704573904810   -2.65530173973369   -1.87040961682844
H        11.62218473697476   -0.65976865434836   -0.71946873263560
H        10.17454980438831    0.60598860447059    0.84451912462307
H         5.15230967853825   -0.75465179004942    0.41598886665837
H         3.13371266602972   -1.86433032843338    1.28943987044771
H         2.85582033995658   -2.19832933394524    3.71528557718562
H         4.61302775515703   -1.44529015610255    5.27410733435279
H         6.67613884928152   -0.39381504680523    4.38743597863470
H         8.21664529995268    1.27434642981134   -0.97282688817711
H         7.09096814060259    2.77736491971161   -2.54000159819767
H         4.96173921292633    3.86003720107745   -1.91714379113535
H         3.97462211846507    3.42224647154912    0.30665145851136
H         5.07513699628953    1.88458613466416    1.85848303288855
H         8.52980324032629    3.87358571435247    5.61453653880394
H         9.85366682598369    5.35769295485275    7.08312668394893
H        11.31518525905434    7.07968849115118    6.09125066257825
H        11.44949287616620    7.32210910619747    3.64273025761656
H        10.13865851684485    5.84492404251916    2.17688714722119
H         6.74446019654498    6.10981593267554    3.17940962379016
H         4.50316606187783    6.55970090780580    4.10670542521157
H         3.13243451957532    4.71034596677827    4.98182032479561
H         4.00731716892600    2.40095530202732    4.95402105934838
H         6.25253333500268    1.94945809052030    3.99165335610033
H         6.59530206779133    5.36816831563110    0.98327068056284
H         7.09616607699229    6.16536611478322   -1.28888483487418
H         9.16187579096730    5.46035242866251   -2.42765009108302
H        10.74214000897408    3.94065337077078   -1.29460862602961
H        10.25246864536453    3.15991826894131    1.01334349493267

