39
CSD_code = TOZVUB | q = 0 | S = 0 | Stoichiometry = C18H14N3O3V | MND = 5
C         4.67610704629014    2.82522716529474   23.52902418892867
C         4.91321535491555    3.32607038818728   24.81301697122765
H         5.82003109985998    3.06627697293710   25.33585062439679
C         3.96811820668367    4.15336136387396   25.38859608815092
H         4.12459157165307    4.55344915308582   26.37922641423125
C         2.81672780311381    4.46157130083097   24.67509352142782
H         2.05896529055759    5.10290235935438   25.09492232847156
C         2.65147907583886    3.92883278892486   23.40366581260119
H         1.77689824355504    4.13111304984257   22.79576482623930
C         5.56305283102311    1.94592886959961   22.79514428367769
C         4.97185117356208    0.74778262604425   19.67004474649129
C         5.39108323253426   -0.14430556628210   18.57393950616233
C         6.73618799823791   -0.54435057810164   18.32866419298161
C         7.84161583251969   -0.06745075774963   19.06188619814099
H         7.66343398183872    0.63576846254885   19.85855352429558
C         9.11228446835994   -0.48662335083800   18.77640058197102
H         9.94710208657736   -0.11067241413361   19.34994503029477
C         9.34839354487596   -1.39975102179605   17.73887771144279
H        10.35790368888135   -1.72175149261805   17.52971977679663
C         8.30287346453535   -1.86695368180643   16.99460211380751
H         8.47130503829372   -2.56045647066170   16.18308323230718
C         6.98031020010230   -1.45128191938764   17.25957207111451
C         5.90616593529841   -1.91713931632336   16.47353673399951
H         6.11562637237607   -2.61011608047744   15.67102516059943
C         4.62707790168492   -1.49652688545699   16.71535145024546
H         3.80764935034549   -1.84770283394060   16.10654898944950
C         4.37299723993733   -0.60921666088188   17.76328033485911
H         3.36164115305089   -0.28288904759462   17.96475869633550
C         6.85695999751054    1.42884880101520   23.34163325097152
H         7.29016033558930    0.73509850492553   22.62469264776875
H         6.69377431813602    0.91219480720699   24.28652684644181
H         7.55432157441127    2.24872265613942   23.51323747797460
N         3.55608613210731    3.13657179196517   22.85410888878895
N         5.09679876049233    1.66273378657429   21.62179084647231
N         5.72365207624981    0.86824899922938   20.76876385337036
O         3.87062007416836    1.35147816748206   19.57795805193428
O         3.06981484606924    3.73648002974051   20.40920403313568
O         2.01745049790027    1.61718318149982   21.46918639144642
V         3.28677220086106    2.36374285174761   21.04990260104858

