94
CSD_code = TOZWEK | q = 0 | S = 0 | Stoichiometry = C40H50IrN3 | MND = 8
Ir       -0.31633026513957   12.26771960094790   17.94965905078699
N        -0.66957548112576   11.83160068952773   15.01725547862260
N         0.67421304428657   13.58046005969827   15.58959769767173
N         1.36880067696777   13.55085703679749   17.75054128844642
C        -2.47113005803687   13.03612712849621   18.50720474878923
C        -1.59462084582162   13.58935398326470   19.45200039288671
C        -0.97997953694373   12.50998439796704   20.19394707806121
C        -1.47622738300513   11.29864668011069   19.69627002353236
C        -2.33071702011682   11.60372484725872   18.56650317443217
C        -3.44793392405499   13.76120571115012   17.63661076845082
C        -1.49927787050813   15.02802911057395   19.84956887198763
C        -0.15782460545203   12.70690818295625   21.42931721175618
C        -1.28987338644582    9.93641904884590   20.28787774499897
C        -3.30969644010204   10.65067072978982   17.95135499181720
C        -0.17605865501256   12.52277627691473   15.96252673811749
C         1.47456518340556   14.04653893997349   16.55608560341237
C        -1.14807159115551   10.56430986746537   15.24869114564932
C        -0.58163296070266    9.80731225444734   16.30081261489108
C        -1.01427532962525    8.49772831975015   16.46666283101838
C        -1.96810322843117    7.94876946561441   15.62746999312675
C        -2.50612674030899    8.70126706814560   14.59685210742853
C        -2.10247056361758   10.01064172773922   14.39067280583859
C         0.82427620986063   13.95677900330303   14.22306665227523
C        -0.05176204701193   14.90809762909270   13.69931902466560
C         0.08615026829874   15.26402242278785   12.36465651851249
C         1.06328294870197   14.68431150136269   11.57830096251899
C         1.91095288784321   13.73151805662843   12.11042099060170
C         1.80811191606707   13.34934424503254   13.44145260675714
C         2.08540793083524   14.12504238762290   18.81290208924340
C         2.02535245406209   15.50311674122097   19.07164580026662
C         1.24477972025382   16.46245564755720   18.21731940427038
C         2.70340456159903   16.00497660061587   20.17570510807611
C         3.43471791630640   15.17953310586366   21.00729854570481
C         3.49390483708432   13.82314451799265   20.74204208430275
C         2.82758716581368   13.28208745921380   19.65509529761216
C         2.89557045345195   11.81756924609062   19.36933221185480
C         0.44859760866676   10.42540672641648   17.17271077580904
C        -2.68497838706675   10.84538530978171   13.29017556819566
C        -1.14893066785560   15.50431533884617   14.54867782425542
C        -1.10537935927773   17.03315007103289   14.53927782811024
C        -2.50306097598079   14.98191315039896   14.06452258164757
C         2.69899342835356   12.26787274803620   14.00336381562496
C         2.27577887929945   10.91700903927002   13.41986799933973
C         4.17833773932178   12.54771344270414   13.73320633254482
H        -4.44056732468310   13.74180417497235   18.09212470567110
H        -3.51825565457626   13.28994774806571   16.65819716603664
H        -3.16045200150029   14.80188105086184   17.49881051415376
H        -0.49318248472515   15.27850193973226   20.18230758065252
H        -2.18268686615375   15.22871975204758   20.67831292817502
H        -1.76995447674577   15.68816914537928   19.02701486390531
H        -0.80349025779197   12.96503747463849   22.27200720365179
H         0.56426109966339   13.51311764491320   21.30347505352057
H         0.38718221221830   11.80144766384904   21.68806237105071
H        -1.31379340589310    9.17036116825098   19.51599489547977
H        -2.09531623891876    9.72675114084943   20.99501025367625
H        -0.34442559672800    9.86039237352735   20.82247328458699
H        -4.24363094634448   10.66521961467854   18.51781351963413
H        -2.92602958826573    9.63421661022555   17.94914028128200
H        -3.53101523649159   10.92548608816610   16.92231415328212
H         2.20984621965823   14.79696760344193   16.28212528427972
H        -0.58607449784279    7.89458620458146   17.25628372596987
H        -2.28959886224582    6.92724906618981   15.77263951249523
H        -3.24755309036563    8.26534556036123   13.94199202382703
H        -0.57982269220280   15.99469433149310   11.93220855046207
H         1.15757873934681   14.96864283838483   10.54058351141061
H         2.65571872130358   13.27341067327337   11.47843657351066
H         0.42738074918975   15.96865187651686   17.69738828942551
H         1.89235264568069   16.92619422024798   17.47201224791504
H         0.83486609738232   17.25945926414782   18.83512548884217
H         2.65156786441986   17.06464199835134   20.38163299360635
H         3.95375738450356   15.59085140106615   21.85988351046596
H         4.06440666426690   13.17251737849421   21.38871800501503
H         3.46397189986043   11.29938845128509   20.13695487706142
H         3.36156350464166   11.63699641763191   18.40188050494966
H         1.88787906714311   11.40431895335703   19.32310171976351
H         1.36958721219985   10.57630793114570   16.59306872781852
H         0.68463822399013    9.74431767102216   17.99445697007227
H        -3.00952155782454   10.22162579683327   12.46040146777410
H        -1.94480995221311   11.56253938125359   12.94170934165260
H        -3.54997732260157   11.40217392451259   13.65402733596843
H        -1.01579912980443   15.16783221756286   15.58119953413965
H        -1.84883966558563   17.43124723376855   15.22667951590822
H        -1.31681826585324   17.42700727501371   13.54881354565058
H        -0.12452853968323   17.38937540828725   14.84819007890860
H        -3.30453841240522   15.37551265504727   14.68581504849506
H        -2.51495045108389   13.89636892300515   14.12089404231548
H        -2.68650370411669   15.27806822749490   13.03454129649721
H         2.56010024338435   12.22019388246733   15.08773119929273
H         2.87426396505911   10.11718510929544   13.84986203657413
H         2.40586882900568   10.90639868170047   12.34044772039540
H         1.22925702280423   10.72847562839823   13.64595863759417
H         4.79261907722200   11.80568642955560   14.23819866948960
H         4.45586118626076   13.53340972292556   14.10158483937876
H         4.40115908576956   12.50268855342750   12.67065201439459

