79
CSD_code = TOZWOU | q = 0 | S = 0 | Stoichiometry = C31H43IrN4 | MND = 7
Ir       34.75935171194091    1.65015901275945    2.61870550701810
N        36.10067947756882    1.41630242973971    1.23867222196779
N        35.69406649589792    1.02961097545704    0.03281166602061
N        34.45106660387074    0.85870872768350   -0.06985536239858
N        33.75990889696662    1.09987781326755    1.04530163678134
C        35.32137730957098    3.07400812955249    4.24818527169415
C        33.89176903919508    3.09799871524021    4.07632887698710
C        33.39010179979906    1.80160999104430    4.37818495627891
C        34.50033002636989    0.97120296684979    4.72809590036942
C        35.69250085620497    1.76811112098034    4.65367025126068
C        36.23767213070352    4.25584848512120    4.21975297280190
C        33.06332825672245    4.32092273290951    3.84600700766558
C        31.94302448780001    1.43441078218313    4.49131494919193
C        34.41508919288598   -0.41343666529986    5.28696435112460
C        37.05900213521330    1.37531567489409    5.12022650462659
C        37.47642895594731    1.66631142121106    1.40954355818605
C        38.31139459386925    0.65733595979556    1.89830288915097
C        37.75699031806658   -0.71289228785863    2.13597197576600
C        39.64476602858024    0.95080562952274    2.13764750132076
C        40.16299463621936    2.21501542438758    1.89781539222207
C        41.60210968123508    2.52664187444270    2.18029272246233
C        39.31846353879544    3.19889101716500    1.39904960303506
C        37.98178097000964    2.94430126573143    1.14446118111763
C        37.07523741662939    3.99544187719627    0.58314954211045
C        32.35867952656081    0.95120079300781    0.96040721529575
C        31.57489953642007    2.04210802166152    0.55934926413296
C        30.19762613745376    1.88734071125374    0.52264197534637
C        29.61112462011983    0.68582254766647    0.87472365113634
C        30.39372623787913   -0.38487852727906    1.26544171442711
C        31.77430800378281   -0.27189730887351    1.31654133980203
C        32.25222960951466    3.32586964393954    0.14277997662515
C        32.66864783069948    3.21937647300191   -1.32815837422669
C        31.39316117975167    4.57050841961654    0.35840029164163
C        32.66555418822185   -1.43096688119120    1.69315668634963
C        33.14009353641810   -2.13185563639346    0.41584183073734
C        32.00220801363293   -2.43479470292575    2.63426460758083
H        40.29378568727282    0.17338691918367    2.51618278907393
H        39.71503398336653    4.18479711121635    1.19953927510718
H        29.57098361886220    2.70766420992544    0.21014543811075
H        28.53645789037187    0.58111712772708    0.83751930843715
H        29.91816326823893   -1.31737594202945    1.52503543180371
H        33.16405850874138    3.42936432356227    0.74739330741337
H        33.54949294386046   -1.01752751853573    2.19907967737361
H        36.41363092825144    4.61157835333922    5.23696910212602
H        35.80998544136409    5.07428564404156    3.64541185457555
H        37.20076002765140    3.99197801147276    3.78490981505200
H        33.55189821151162    5.01271189636656    3.16230229629632
H        32.90164572428660    4.84086926678642    4.79259183615847
H        32.09238007574503    4.05679634019702    3.43440059438316
H        31.54849616572228    1.75323908526289    5.45798200071174
H        31.80491954915040    0.35972494096746    4.40521113052841
H        31.35369372103380    1.90838780150748    3.70820356959224
H        33.55733226291039   -0.94844269936231    4.88626299947285
H        34.30793018371834   -0.36648447661616    6.37270209001625
H        35.31235399653767   -0.98745698092949    5.06293216773995
H        37.15763597536117    0.29532509953179    5.19231165262734
H        37.24892895237836    1.80087319645590    6.10744854909471
H        37.82648991150433    1.74402801617473    4.44100534518228
H        38.44800083957765   -1.31879148003726    2.71636256330190
H        37.57211229786220   -1.20612362595059    1.18204649492000
H        36.80164279459153   -0.64814690034754    2.65844482389968
H        41.68894962836332    3.10209710204770    3.10271608514582
H        42.03121447460990    3.12062270337861    1.37581434651879
H        42.18286439947705    1.61451204812384    2.29202909177173
H        36.13961290495720    4.02590054031791    1.14335711784726
H        36.82709945231824    3.75363709897209   -0.44993531571424
H        37.54627485406341    4.97445783169313    0.61279948753316
H        33.17345286465361    4.13037944154140   -1.64287832876581
H        31.79200621719327    3.07168546012232   -1.95556557315039
H        33.34226626058358    2.37746023906185   -1.46969754397666
H        30.58307461813697    4.61660471521383   -0.36552270786406
H        32.00274957052827    5.46285576146136    0.23169032935157
H        30.96651316330175    4.58556760074381    1.35894813001023
H        33.79966746419348   -2.96094973332915    0.66350078255741
H        33.67841893350191   -1.43313401652777   -0.22023047679959
H        32.28718592236751   -2.51801068867617   -0.13861109978480
H        32.74891715689979   -3.12672432054334    3.01921283202393
H        31.24614805691446   -3.01823683084650    2.11435224032764
H        31.53057811754621   -1.93153930012886    3.47643523436009

