61
CSD_code = TOZXIR | q = 0 | S = 0 | Stoichiometry = C20H30Cl2N4O2P2Pt | MND = 4
Pt       11.55163666319064    9.52094347143301    8.83045687271068
Cl       12.10835819618331   11.51384849654081    9.72468033067070
Cl       11.95515390591257   10.37211182286476    6.74457858968016
P        11.03985656458105    8.69709124554787   10.89870080830517
P        11.91912915807476    9.07480087668519   13.27819396015200
O         9.97194924434305    7.48920431002251   10.65489765295787
O        11.38229238727611    8.05778282061606   14.41285548477208
N        11.17433429865688    7.72043103436875    7.95901915434531
N        10.48527989569917    9.39757726007444   12.32876651583996
N        12.17333431094174    7.98046129587712   11.92368144231888
N         8.10836452129616    6.65083578252840   14.52924490937845
C        12.01465419114336    7.29856907716829    7.00980867221683
H        12.82089067931848    7.97106938114765    6.74867318146531
C        11.85921175358554    6.08479223938417    6.36718740714989
H        12.56016032542623    5.79270226270844    5.60243191087550
C        10.79775623023882    5.26678490814132    6.72069970905798
H        10.64408051301722    4.31418988729897    6.23850613780335
C         9.93846935608299    5.70057031200778    7.71811265309856
H         9.10414257193866    5.09456360700707    8.03364063061969
C        10.15256643025761    6.93243854780099    8.31565065698670
C         9.26775191332836    7.43079175681635    9.42615171621512
H         8.88815286089086    8.42707163505199    9.15464000540073
H         8.42656395163906    6.75244433059599    9.58615888261459
C         9.59159647004623   10.53496353234222   12.49984598374901
C         8.74526282634595   10.66348044953691   11.23574556448830
H         9.39190410255599   10.85678552088981   10.37603466685985
H         8.04686243915794   11.49114807972251   11.32999052034164
H         8.18028522437356    9.74614390118110   11.07367026437693
C        10.38598166976443   11.81550809114450   12.74792971775063
H        11.05128968433587   12.00671253390903   11.90898742269349
H        10.98219290933090   11.70757084094257   13.65311112296086
H         9.71416263676886   12.66140584375649   12.86870039732209
C         8.69505975677612   10.23710802223700   13.70631678650339
H         7.99660409084231   11.05423008964878   13.86783071311216
H         9.30590020280879   10.11626556146831   14.59864077290719
H         8.13492930627927    9.31891459390492   13.54423054128987
C        13.48622836341543    7.49585558240708   11.52593610321287
C        13.27734890147845    6.34900580231896   10.53631696032765
H        14.22835595258809    5.89053869465330   10.27751945735611
H        12.81600696031660    6.73005291826765    9.62684290621741
H        12.62341003099486    5.59506768155641   10.96865705444965
C        14.31399324985545    8.60731751085839   10.88045022789720
H        14.42313721381500    9.43852667948333   11.57470883654514
H        13.81391068758966    8.98066060619039    9.97788570725900
H        15.30014538391846    8.24332034916266   10.60270957950301
C        14.18519554926487    6.98642451814403   12.78706455326924
H        14.28458981969607    7.79799715093330   13.50659030146832
H        15.17433392898855    6.60616316771372   12.54574426247446
H        13.60141634598527    6.19131170949743   13.24440417910259
C        10.45788883472420    7.00808549163766   14.16498684168615
H        10.96055497692971    6.06119392035586   14.39820660528860
H        10.15664334518985    6.99222936096467   13.11237803943707
C         9.23468512963101    7.14171620237744   15.02953460350340
C         9.29930466647669    7.73863570581480   16.28441059377044
H        10.24013366800865    8.12256766181350   16.64534354152276
C         8.13976149321614    7.83266712549098   17.03406653036440
H         8.15340924310244    8.29613588669843   18.00988629815219
C         6.96258929886701    7.31904239389448   16.51188277240743
H         6.03663935069588    7.37089023048064   17.06284017513823
C         7.00759361558547    6.73524311252006   15.25580669216938
H         6.11900274725286    6.31693711438900   14.80045541847516

