43
CSD_code = TPASPD | q = 0 | S = 0 | Stoichiometry = C36H2As2Cl2Pd | MND = 4
Pd       -0.00446578779830    0.00508686626854    0.00473681958067
As        1.76969273562213   -1.37514229422236    1.38023227151491
Cl        1.76528161810717    1.44934765978636   -0.36141670493204
C         3.16957149956013   -0.00527566577967    1.45453521471517
C         4.23354349078415   -0.20236678415983    2.28671312918006
C         5.10708786611548    0.77362354168669    2.29000700008998
C         5.08534864646660    1.86875256883940    1.60070635344670
C         4.09053218431734    2.13486256824121    0.78213488616371
C         3.08945538126764    1.20592752028662    0.67451706573118
C         0.80130036586324   -0.68392841582731    2.94399543381593
C        -0.08286763349911    0.39992786211138    2.95566067414254
C        -0.67589268419742    0.76472987321053    4.15747625309031
C        -0.30398995107984    0.00789684559811    5.15729101091423
C         0.49510745372357   -1.00025785814325    5.27275041680676
C         1.12551589933491   -1.41575374867633    4.11784071099876
C         2.58914211344085   -2.65186439666614    2.62151038353077
C         2.08349672516958   -2.49293572149435    3.97480697223986
C         2.57225478879848   -3.34058233334519    4.91943226550497
C         3.44327747237048   -4.26503354180473    4.57745354616526
C         3.84612164698973   -4.33754349549604    3.35066448890619
C         3.48566630322452   -3.62436333476275    2.30409176655204
H        -0.31816829918308    0.97753124010729    2.04231761926897
As       -1.77765656118394    1.37852359229641   -1.37999172658966
Cl       -1.77578945662587   -1.43656202062882    0.37486714036462
C        -3.17281988301628    0.00396585534887   -1.45752302575773
C        -0.80151333332934    0.68718296930272   -2.93880277476921
C        -2.59497729473018    2.65148783467395   -2.62642257289716
C        -4.23145989333482    0.19313195721463   -2.29826366282169
C        -3.09332915000854   -1.20357705359512   -0.67182279881562
C         0.08381069933580   -0.39578237172090   -2.94543135468597
C        -1.12131065924970    1.41754835676722   -4.11473112738818
C        -2.08198849613103    2.49303284368290   -3.97708020767224
C        -3.49523329711241    3.62221060258823   -2.31411922105986
C        -5.10096385840119   -0.78646531122204   -2.30365387537046
C        -4.08980768306343   -2.13706579423098   -0.78263622978307
C         0.68293010716545   -0.76085542844794   -4.14413338239490
H         0.31502296795550   -0.97256755347927   -2.03048511886419
C        -0.48496949496535    1.00187062440658   -5.26633774410998
C        -2.56777788853275    3.33914874192123   -4.92455868764745
C        -3.85183595033054    4.33410683429379   -3.36287649959665
C        -5.07963387136840   -1.87865631481446   -1.60967801478909
C         0.31482842336024   -0.00519042334880   -5.14623888413284
C        -3.44253726181820    4.26187310318025   -4.58753780862734

