81
CSD_code = TPCBPV | q = 0 | S = 0 | Stoichiometry = C42H34N2P2Pt | MND = 4
Pt       -0.12297357592665    1.29493970417363    4.35603839403146
P        -1.95518441299930    0.39132422101493    3.28200177567301
P        -0.14930426615127    0.21169095174206    6.41830683037314
C         1.38804661685368    2.70369848864571    4.49216123321491
C         0.56299764546244    2.93433302819757    3.29578869561275
C         1.76178450855166    2.71940625734841    2.37541914735536
C         2.62103745211486    2.43219380974472    3.62377948162106
C         1.39429256058382    3.40681405912850    5.70442624413056
C        -0.49933634121791    3.82979436077544    3.12462968230725
N         1.40684964707760    3.96554277503147    6.71256006377995
N        -1.40512863835350    4.53188611599748    2.99072233242248
C        -1.90198707082210   -1.41370475251628    3.05621223718630
C        -0.73995826451926   -2.07140743977391    3.44051218033670
C        -0.63055441941540   -3.44143552948072    3.29231364610806
C        -1.68460600431652   -4.15831083173370    2.75127991420622
C        -2.83424728411045   -3.50286336876221    2.33694190690401
C        -2.94396647667762   -2.13209025097483    2.47972278326205
C        -2.22029966123341    0.88813220719546    1.54705514599090
C        -1.10989250120674    0.75956741797006    0.71718955614200
C        -1.18645387928589    1.10989445163117   -0.61529363051073
C        -2.37820005226504    1.59759226383291   -1.12928347851747
C        -3.48607959258717    1.72297674133172   -0.30931519497677
C        -3.41405859838786    1.36726617784792    1.02682121675338
C        -3.54459551055087    0.76818373369302    4.07432430452494
C        -3.86591394508112    2.12279320504186    4.16745551621170
C        -5.00684830647889    2.52161505296808    4.83569160100265
C        -5.82370939082771    1.57724916079593    5.43754593429666
C        -5.50234390450325    0.23317965194003    5.35751328847445
C        -4.36844400033687   -0.17483188286498    4.67637869395792
C         1.29848901700977    0.55276049828429    7.46830630818341
C         2.54759972530012    0.32575937566580    6.89590003565816
C         3.70110194665766    0.59408599195794    7.60534844549395
C         3.61302502863193    1.10820893269706    8.88938755649208
C         2.37351098846585    1.34781080144113    9.45718974545849
C         1.21491365379700    1.07075332458126    8.75304364306261
C        -0.45781288816994   -1.55744227775861    6.72311770686779
C        -1.73407884112280   -2.04324659015231    6.44863893499142
C        -2.00500599544007   -3.39291965471886    6.54590095652737
C        -0.99869971159171   -4.27574886418899    6.90671370494567
C         0.27312462009606   -3.79988673445037    7.17656427398405
C         0.54810384885536   -2.44652393014963    7.08224512945076
C        -1.52227829060091    1.02363260862761    7.28648935481078
C        -2.16873711638882    0.48567350735100    8.39464845872805
C        -3.20384599653587    1.18222589163692    8.99103070583079
C        -3.59261069832227    2.41672326318322    8.49519852491553
C        -2.94821140497507    2.95859666860771    7.39567664006587
C        -1.92080978924759    2.26108253854859    6.78995618584319
H         1.67919243826659    1.90743611074820    1.65118304337315
H         2.05549236095670    3.63033330814090    1.85107616299295
H         3.03149841099879    1.42236008668827    3.68590741031550
H         3.42561080161922    3.15163904849516    3.78224208422578
H         0.07720165759749   -1.48840672798595    3.85912558208575
H         0.27058241375645   -3.95017605375804    3.60124829490781
H        -1.60809230688565   -5.23000898182581    2.64133657384541
H        -3.64609802033094   -4.06450784163790    1.89783650339142
H        -3.83137060155793   -1.61377721208983    2.14249452339070
H        -0.18608570934556    0.38063307416782    1.14007898996769
H        -0.32101542502309    1.01128638129214   -1.25448111831364
H        -2.44060095725343    1.88288420538037   -2.16897306161073
H        -4.41388664653791    2.10341413212617   -0.71084144396345
H        -4.28233915186109    1.47132889649587    1.66145863407394
H        -3.21438621063273    2.85753586227297    3.70995248837426
H        -5.25671254804568    3.57042179313893    4.89290983441014
H        -6.71036290931272    1.88864263263248    5.96966644777399
H        -6.13805056077748   -0.50381264273777    5.82698594205271
H        -4.13085328104376   -1.22731677005398    4.60734631471871
H         2.59902323074473   -0.05272663446036    5.88093376098434
H         4.66807576488428    0.41684224528216    7.15684714088002
H         4.51306543899199    1.33324713807581    9.44215351789627
H         2.30742894680581    1.76198315536535   10.45237602272922
H         0.24983814760613    1.27213590321890    9.19443174351802
H        -2.50794715089376   -1.34258394611765    6.16561136675723
H        -2.99857474113268   -3.76125532023179    6.33521552470744
H        -1.20700588827779   -5.33300629998901    6.97754714515599
H         1.05739361216157   -4.48654687643514    7.46084591667824
H         1.54242535524483   -2.07941579783768    7.29498888297372
H        -1.86335772417214   -0.47644878143769    8.78340354277467
H        -3.70699469135343    0.76245654320110    9.85025669550054
H        -4.39911625504731    2.95655318474352    8.96900489660317
H        -3.24464709717109    3.92173725331726    7.00972203363684
H        -1.41213113280097    2.67964380071076    5.91995278999034

