43
CSD_code = TPCPCQ | q = 0 | S = 0 | Stoichiometry = C24H15CoO3 | MND = 6
Co       -0.02510340226166    0.90422541684226    3.52445986334320
O        -0.40681296156418    2.60250534664580    1.15414345753255
O         0.19832249672616   -1.85602275218288    2.52714632575834
O        -2.55812484128145    1.09973659494014    5.01176694751811
C        -0.26072654200397    1.93878741112333    2.07335276004888
C         0.10331454614186   -0.77951138005611    2.89855286346898
C        -1.57953631633151    1.01962105662788    4.42683393017472
C         1.07583109293434    2.11128219062737    4.67550553399823
C         1.19836017697091    0.71694260084908    5.05295379553586
C         1.91304614311915    1.24165495907802    3.90931269153238
C         1.03143951585814    3.40993909987059    5.30170923133144
C         1.32812725532908    4.57013481842596    4.58457942477866
C         1.30631544846001    5.79943529189337    5.21303555083273
C         0.98449565581640    5.88959151053322    6.55817230988981
C         0.68007847259160    4.74307271828459    7.27514297990791
C         0.69679915819664    3.50974782039678    6.65447873283543
C         1.50062904794570   -0.04750555659237    6.24967780742930
C         0.63670721996932   -1.01856757987013    6.74595681705093
C         0.96013705860026   -1.71668856432348    7.89496858991270
C         2.14572056813765   -1.45377068825764    8.56002797995586
C         3.00994108934761   -0.48738637084267    8.07056855499957
C         2.69583656748381    0.21339471698843    6.92247969145791
C         3.20853134343260    1.14808307056622    3.28296751247230
C         3.70988884521230    2.19109158062555    2.50214790256345
C         4.96623977131993    2.09353406392968    1.93756885811552
C         5.73503544119699    0.95779040556705    2.13792595232944
C         5.24102522056220   -0.08580272532916    2.90502425158904
C         3.98492280407196    0.00162523013207    3.47144927733177
H         1.56342890996142    4.49988627332006    3.53261061777856
H         1.53796477034156    6.69309539572977    4.65231131475590
H         0.96607446200916    6.85284091289237    7.04573484316116
H         0.42504287742678    4.81247165271543    8.32239468206683
H         0.45867556752134    2.61258552486593    7.20796809484191
H        -0.28669360755048   -1.22341600711275    6.22205648014564
H         0.28350061991850   -2.46945278867371    8.27176929503109
H         2.39718491742803   -2.00021055034748    9.45664580000763
H         3.93621992105163   -0.27814469929959    8.58540404027822
H         3.36766883329052    0.96859661154435    6.53888931121237
H         3.10559846379359    3.07122993942742    2.33908577475411
H         5.34855919933145    2.90495715422775    1.33577434131334
H         6.71612701562778    0.88425646034226    1.69297700922668
H         5.83789593398133   -0.97274610625619    3.05889656528975
H         3.59341123988513   -0.81029005986859    4.06757223644156

