103
CSD_code = TPCUFB | q = 1 | S = 0 | Stoichiometry = C54H45CuP3(1+) | MND = 3
Cu       -9.37452595702447    5.41237622360035   -7.03542908643978
C       -12.93318921920094    5.69174808458059   -6.34820237134487
C       -14.24110866813753    5.77983699803964   -6.81432654822940
C       -15.29147795004946    5.50699885831993   -5.95825032415351
C       -15.04598404681152    5.15769455843399   -4.63899665876866
C       -13.74544686360750    5.08881085847478   -4.16727585990568
C       -12.69017295462410    5.35765251143264   -5.01973019640594
C       -11.93496340734039    5.44438350268894   -9.04833780988177
C       -11.35374584739375    6.05136260518299  -10.16041263547628
C       -11.55472145929638    5.52402307560418  -11.42178542385696
C       -12.31644412576486    4.37655499118775  -11.58126404872808
C       -12.87422494418558    3.75535851273082  -10.47489327552849
C       -12.68280655345028    4.28120974565370   -9.20962943158507
C       -11.68389021013915    7.88220997840672   -7.55161302949415
C       -12.51945050356469    8.50714803464948   -8.47011956787996
C       -12.60804234669527    9.88733904767845   -8.48237534377530
C       -11.87898200570223   10.64648578093514   -7.58029696261845
C       -11.05582515016269   10.02542273458512   -6.65485729448312
C       -10.95921505353595    8.64661223794307   -6.64232601810964
H       -14.43241603273567    6.05621871818101   -7.84145701701495
H       -16.30686906617623    5.56957848347634   -6.31961161963872
H       -15.87100379401304    4.94396312115074   -3.97688162538330
H       -13.55518601701182    4.82570898758928   -3.13760046706677
H       -11.66851193164560    5.31337401567712   -4.66119212294733
H       -10.75116909414551    6.94011729449613  -10.03074470566106
H       -11.11245101811778    6.00865892629177  -12.27923723595681
H       -12.47276072817670    3.96406784488585  -12.56638986869494
H       -13.45898683369545    2.85585755260342  -10.59556122419650
H       -13.11337765318038    3.79133848688611   -8.34786305958928
H       -13.08894682679543    7.92147474337497   -9.17758789162706
H       -13.25282741974179   10.37430085585786   -9.19851975184072
H       -11.95464476412181   11.72301776173398   -7.59809532503052
H       -10.48661656241629   10.61226514794077   -5.94878112710562
H       -10.31491098169391    8.14791860147860   -5.92827697255061
P       -11.50093925322303    6.07468914558517   -7.40483747402638
P        -8.88486668235070    3.23966867357806   -7.40481229312776
P        -7.73770323591847    6.92276843537600   -7.40476796313336
C        -7.83707881296945    2.19076679492838   -6.34820165424039
C        -8.12201576282476    3.17898111028088   -9.04832491352923
C       -10.35875487375700    2.17746722110266   -7.55158254535542
C        -7.35319979539864    8.35461848908468   -6.34814635622592
C        -8.06658427701755    7.61377439334805   -9.04827316950032
C        -6.08087481912267    6.17742858858121   -7.55156787727345
C        -7.25940314515359    1.01403053326953   -6.81432801750818
C        -7.66923273937228    2.56827093062191   -5.01973017195102
C        -8.93830591521135    3.37880883865692  -10.16038982300342
C        -6.74075891417275    3.11289631931200   -9.20964699153759
C       -10.48219438159744    1.14136866597734   -8.47007669862789
C       -11.38307433104573    2.42284716106818   -6.64228170603582
C        -6.62291203680744    9.44324680337653   -6.81425920414798
C        -7.76408998813010    8.31124688356970   -5.01968612244360
C        -7.83154719974328    6.80691418050884  -10.16033606349804
C        -8.69992477326485    8.84304911890893   -9.20959431976259
C        -5.12187256449796    6.58856652615521   -8.47007209101284
C        -5.78121500581543    5.16765771512983   -6.64226184949775
C        -6.49791628321695    0.24080884421115   -5.95825911540723
H        -7.40312177754751    0.71014994825140   -7.84145196051664
C        -6.90875220509708    1.78880536781067   -4.16728553384481
H        -8.14171235701106    3.47519348495351   -4.66118511763335
C        -8.38115453119537    3.46839503141311  -11.42177706675247
H       -10.00927876873939    3.45624063844452  -10.03070799066955
C        -6.18967636969124    3.21001292722526  -10.47492624158652
H        -6.10121471783502    2.98491001840524   -8.34789853408762
C       -11.63317465770173    0.37454105842898   -8.48230931327027
H        -9.69023581193429    0.94098201575530   -9.17753516579128
C       -12.52885037000784    1.64976751988276   -6.65479225976593
H       -11.27333807092861    3.23017736717483   -5.92823456405060
C        -6.33402258786297   10.48932315008727   -5.95818940995687
H        -6.28785900494633    9.47070959249767   -7.84137525239738
C        -7.46928929120508    9.35957374571241   -4.16724059186468
H        -8.31330680889248    7.44862732759975   -4.66115018062545
C        -8.18770596203188    7.24463419732556  -11.42172111333902
H        -7.36315015347213    5.84069333311512  -10.03065388843383
C        -9.05957253173825    9.27174783592685  -10.47487181327704
H        -8.90880838226456    9.46092492168266   -8.34784936708445
C        -3.88229057258248    5.97520044279714   -8.48230683986427
H        -5.34430975918375    7.37461918363510   -9.17752786897956
C        -4.53882231000057    4.56192244593907   -6.65477717431706
H        -6.53524373052317    4.85904287125102   -5.92819995643536
C        -6.31813701148355    0.62806860466403   -4.63901021277209
H        -6.04442011958316   -0.66983755280314   -6.31962035310612
H        -6.77600590368957    2.08513420288608   -3.13761564046069
C        -7.00656066735757    3.38244880709921  -11.58128307469446
H        -9.02200897294847    3.60915633297245  -12.27921035771548
H        -5.11830450738429    3.15340476809167  -10.59561166138345
C       -12.65513597473076    0.62635378674944   -7.58022143683662
H       -11.73252080737170   -0.42733383534749   -9.19845893891494
H       -13.32168445462432    1.84932386157566   -5.94873580135902
C        -6.75932732745863   10.45140767912214   -4.63895245260473
H        -5.77208709778762   11.33736427529047   -6.31953784869031
H        -7.79231157362813    9.32638279277965   -3.13757677802063
C        -8.80051942631615    8.47806661478070  -11.58122621136378
H        -7.98923275007388    6.61923642067136  -12.27915112685248
H        -9.54620347035002   10.22790295110442  -10.59555661338616
C        -3.58938185893043    4.96425546405632   -7.58021433821730
H        -3.13818208241602    6.29008267614479   -9.19847421758974
H        -4.31523110504982    3.77551876348663   -5.94873177858382
H        -5.72051187416702    0.02045358831664   -3.97690385170694
H        -6.57119139967436    3.45341034277869  -12.56640819813847
H       -13.54962747516784    0.02258969375402   -7.59803489384364
H        -6.53191337874409   11.27276589642022   -3.97684138577717
H        -9.07967686672070    8.81962252243948  -12.56634773255081
H        -2.61927238098675    4.49146266326751   -7.59804956906652

