79
CSD_code = TPFYPT | q = 0 | S = 0 | Stoichiometry = C40H30F6P2Pt | MND = 4
C        -1.11897325261224    0.55026801689147    2.46557640373212
C         4.15577268003796    1.56811882610149    0.68386203269762
C         5.27744552109817    0.75059171438313    0.77843805203837
C         6.07455700429703    0.54926921628263   -0.33364774955183
C         5.75168471998860    1.14803991139728   -1.54196175207819
C         4.62000736117613    1.94033882426056   -1.64631067634596
C         3.82243935407041    2.14611471902309   -0.53539333446019
C        -0.54844536037913    1.85955066157220    2.09685118933080
C         2.95779679250707    0.22509601307047    2.83185944905517
C         3.46881732444181   -0.10576211577438    4.07954944505919
C         3.30278015781523   -1.39067193465820    4.56799317114005
C         2.63015978641930   -2.34164362396645    3.82002616464031
C         2.11795361854135   -2.01271424079748    2.57416187023538
C         2.27886003737179   -0.73304873631206    2.08304178572991
C        -0.93737928348876    3.06458298336549    1.80501621924408
C         4.04094792771207    2.82397407460249    3.30402902515443
C         3.27918234884644    3.43501028605092    4.29855486833976
C         3.88568711625942    4.20138033075529    5.27305896469242
C         5.26158348019022    4.37187956197526    5.25207075646843
C         6.02007385963858    3.78045069173469    4.25662623773995
C         5.41560185006603    3.00715775279182    3.27985554703649
C        -2.18076795386547    3.84653765391290    1.67079202639804
C         0.76872976135025    6.38162985163195    1.94353255079045
C         0.17081952826902    6.06008398562900    3.15844073359012
C        -0.69097509136403    6.94916731566390    3.77068336312093
C        -0.96489464190929    8.16552525127685    3.16578564629729
C        -0.37342703379267    8.48903283816477    1.95570515884611
C         0.49426439880259    7.60283886748729    1.34209202651586
C         3.51743209056410    5.74526756638782    1.64094362195121
C         3.72453799387345    6.59017476624074    2.72486874102458
C         5.00569567270823    6.99587230160225    3.05309790632781
C         6.08790117430753    6.55804112075551    2.30938936074481
C         5.88842753828504    5.70347969944397    1.23677240748227
C         4.61157820318045    5.29303507629509    0.90758396919105
C         1.75953259797849    5.41530966473394   -0.56880211353675
C         2.43338885163445    6.44171470019519   -1.22233557523486
C         2.27727398353052    6.60517294380195   -2.58724674955233
C         1.45536471346090    5.75020734683007   -3.30447205464686
C         0.79032232403011    4.71999790824848   -2.65903505537721
C         0.94446000401647    4.55264766650844   -1.29573848271628
F        -0.98085309776486   -0.36782026400760    1.48672746748596
F        -2.43738966742670    0.60172496882085    2.74371561851568
F        -0.53500541935069    0.01572398897288    3.55837456517074
F        -3.17772072937567    3.15773449700022    1.08094960855685
F        -2.65612814425757    4.25975477399531    2.86334955599346
F        -2.02603452108098    4.96582888104620    0.93005059331000
H         5.51193474126771    0.26574043743678    1.71648238005773
H         3.98777239549618    0.63837011124194    4.66798653176504
H         2.20001562570027    3.28908476785972    4.28872161517971
H         0.37747066755976    5.09206549479839    3.60698550493108
H         2.88095170088822    6.93368273381168    3.30669782807643
H         3.08584041021671    7.10064934132667   -0.66564376637261
H         6.94850576789829   -0.08165008357225   -0.26174206545967
H         3.69647617868632   -1.64763989161607    5.54069080444599
H         3.29300706447778    4.67023695234660    6.04454238239973
H        -1.16229963171088    6.68872769949219    4.70653248478508
H         5.15926788083493    7.65752117199979    3.89288606674856
H         2.79917521138863    7.40347848303806   -3.09478047745112
H         6.37812069016105    0.98542803024925   -2.40654158853449
H         2.49732898538593   -3.33945154017879    4.21090976268520
H         5.74188009054138    4.97307862583484    6.00966865901396
H        -1.64943493744308    8.85762403546123    3.63320783334035
H         7.08624395441873    6.87981344837367    2.56604555250831
H         1.33754593044450    5.88507322954163   -4.36949241726925
H         4.35763416343389    2.39297922970291   -2.59147858544325
H         1.58324523991754   -2.74986929985131    1.99423145807413
H         7.09043530101518    3.92417472675469    4.23793193478982
H        -0.59650409456320    9.43392505327996    1.48211375850792
H         6.73069329727025    5.35488159846826    0.65701149841475
H         0.15566768975305    4.04926388275303   -3.21869015528087
H         2.92160438723562    2.74824821730233   -0.59844514489274
H         1.86825560064353   -0.45625918960276    1.11941933528866
H         6.01052160380616    2.55851651170568    2.49779978131682
H         0.94169154897801    7.85226213838590    0.39089302955962
H         4.45412004141691    4.62179909027095    0.07442831700468
H         0.43685787375630    3.74384816407492   -0.77328020303058
Pt        1.09025989109968    3.01292608022354    1.76254300301834
P         3.05857193708284    1.88628652002917    2.09643466022906
P         1.85905721316179    5.11711792566929    1.21994766141387

