92
CSD_code = TPSFPT | q = 0 | S = 0 | Stoichiometry = C49H38OP2PtS | MND = 4
Pt       -0.51962463398486   -1.25670333813966   14.46459530199112
S        -1.43743660345419   -3.39477730800892   14.75290569359978
P         1.76201497640496   -1.51311544458992   14.63064187315181
P        -0.85783468505824    0.97029984924815   13.77272667713262
O        -1.22268134684231   -4.13527386279039   13.48635789100042
C         2.86599528540158   -0.14777396215079   15.12096550616223
C         2.96851320673418    0.94757136383004   14.26561926242614
C         3.70266439352983    2.05710125158800   14.63383123816242
C         4.33299921267659    2.09207460712302   15.86793455498691
C         4.22741071927948    1.01140866157750   16.72677216437778
C         3.49471638712220   -0.10412620174414   16.35990648258143
C         2.27864229245800   -2.84445316263517   15.76197024326284
C         3.45161010015347   -3.56811193109053   15.58262636237216
C         3.78218101842206   -4.57116163474352   16.47580895422301
C         2.95189403305642   -4.85253462599370   17.54929374338774
C         1.78340953288392   -4.13086955311208   17.73299092592578
C         1.44723337094057   -3.13263097777441   16.83827936484819
C         2.44118220800097   -2.07526581318563   13.03992168984430
C         3.65602447034164   -1.65858122974606   12.50873169230761
C         4.07551094287130   -2.14567828499724   11.28330685160723
C         3.29469850010166   -3.05302664258577   10.58674656439672
C         2.08817478759914   -3.47909189428009   11.11868774032783
C         1.65919562070208   -2.99050550653627   12.33821117124140
C        -0.21720678260883    2.29773113441048   14.83852759013470
C        -0.36051160389279    3.65146152317721   14.55181493750948
C         0.19140166873085    4.59460289813179   15.39944714300813
C         0.87148299594902    4.19633569045981   16.53995051008653
C         0.98059904548548    2.85105298335012   16.85039832411166
C         0.43398474443555    1.90627385202613   16.00255369003868
C        -2.48211777279111    1.63360379460792   13.29924627217234
C        -2.95016523439050    1.58254025601972   11.99087072271749
C        -4.22272439376805    2.03469812605559   11.69609845336208
C        -5.03685313424782    2.53156985839688   12.70026651647191
C        -4.58036543872563    2.56716807659074   14.00812382101403
C        -3.31246002379959    2.11146990728992   14.31020924367605
C         0.07850552999997    1.07502784988924   12.21245762493733
C         0.78102764162917    2.18269213998488   11.75538370102967
C         1.50026219299288    2.10113503216009   10.57485925683515
C         1.52059462536805    0.92358340881534    9.84544505508342
C         0.82008393285188   -0.18412565530160   10.29617042147412
C         0.10793439714374   -0.10904429197328   11.47718004478196
C        -2.48353579518401   -2.00786125875548   14.47631949387337
C        -3.37140157711733   -1.81422101992800   13.33542867844308
C        -3.24528792810837   -2.22388648567375   12.01715224934010
C        -4.24811275072624   -1.88952712595646   11.12364524848601
C        -5.35999950119866   -1.16385010561430   11.53217272621640
C        -5.50060557038543   -0.75694108111561   12.84798217535048
C        -4.50657827117479   -1.07988082131396   13.75526390006238
C        -4.37337598973592   -0.80755601483485   15.17099902660322
C        -5.18627066859080   -0.12897419834754   16.06416819607989
C        -4.78426250228518   -0.02516292734068   17.38463761096410
C        -3.59098869596818   -0.59306333331482   17.81771823698137
C        -2.77004990328399   -1.27912977248211   16.94010527799099
C        -3.16038820294732   -1.38329680745664   15.61239441450325
H         2.46625171605869    0.91626675737988   13.30856960709427
H         3.77923024131161    2.89890446366067   13.96127237167128
H         4.90294062731283    2.96169795173684   16.15966187988967
H         4.71645281533651    1.03745927832598   17.68989275599134
H         3.41097933489874   -0.94300818490922   17.03647808478386
H         4.09629164854769   -3.34838998473150   14.74308378094204
H         4.69017973886492   -5.13892963314206   16.33346032530677
H         3.21418126228794   -5.63960977159412   18.24079642039523
H         1.13470317020416   -4.35299710168672   18.56750931622967
H         0.53067366846336   -2.56474757952401   16.95606414180007
H         4.27382538813948   -0.95503155331575   13.04916118789232
H         5.01921603609004   -1.81685741186023   10.87197949506248
H         3.62859303563489   -3.42842446665250    9.63023238054915
H         1.47876317159973   -4.19137616969939   10.58223348003313
H         0.71667009221423   -3.32929116619563   12.75194150697152
H        -0.91781421081959    3.96199184558756   13.67835306043291
H        -4.58188925727053    1.99553051091137   10.67826121224204
H        -6.02977037038140    2.88532964216285   12.46429963901710
H        -5.21648197443985    2.94434677851219   14.79543054468751
H        -2.95488460878451    2.12144237092271   15.33150456209950
H         0.78691648128547    3.09753207283789   12.32959746701809
H         2.05247651351623    2.96143410948168   10.22479544835650
H         2.08839453515871    0.86733059138336    8.92858545816638
H         0.84209454439650   -1.10608940384515    9.73490403429829
H        -0.43545485368081   -0.97300200653184   11.85329694642249
H        -2.39287521946338   -2.80689421397409   11.70027212582452
H        -4.16749668720427   -2.20190458093865   10.09204664164083
H        -6.12881602046843   -0.92036755925766   10.81243131319062
H        -6.37216718233321   -0.20122457762928   13.16233659694792
H        -6.11699382975189    0.31012975546227   15.73535886935840
H        -5.40664886820781    0.50230638804671   18.09356517256722
H        -3.30419162085904   -0.49740732504889   18.85534951363466
H         0.08788526214350    5.64616197158523   15.17342090857408
H         1.30308991143631    4.93887941767880   17.19484655119852
H         1.49007477124510    2.54061494407783   17.75039865365789
H         0.49528462792162    0.84714800098088   16.23296174377884
H        -2.31894843761499    1.18958082614890   11.20642914144386
H        -1.84434427581913   -1.72763497761707   17.28149514814557

