53
CSD_code = TPTCAN | q = 0 | S = 0 | Stoichiometry = C23H25AuNPS2 | MND = 2
Au        4.02099176192859    1.13971961921628    3.78893722444173
C         2.44185370227288   -0.96500537861879    2.31620385672251
C         5.76835873229334    6.34073736914446    5.00591996470629
C         5.68040245460419    5.02832837232490    5.43753263559651
C         2.99697253606729    2.61912291790576    6.75239688826650
C         2.81834676758076    3.73421661590071    7.56859467426515
C         1.78461667936833    3.74961149156419    8.48576707213136
C         0.92996538164268    2.66222621761979    8.59069634986240
C         1.10392221090336    1.55655243172996    7.77450537258835
C         2.13536242044995    1.53169951792057    6.85260529774814
C         5.81778156959034    2.13313388506682    6.53224069170604
C         5.82096122813141    2.05818036346721    7.91990090050544
C         2.49924789884093   -2.27222931835777    0.26433513487281
C         6.99046012631972    1.72907901584470    8.58345296712868
C         8.15037133333720    1.47272861540122    7.87136194371754
C         8.14619694301643    1.53631364653887    6.48587511481162
C         6.98170603203421    1.85779682706503    5.81644961905928
C         2.05776908042158   -1.37277748179619   -0.88684769388660
C         0.62908927425019   -2.50552769663924    1.86265823166395
C         0.84053093833522   -3.76445167544589    2.69855109227829
C         4.58109342323339    4.26005851300334    5.07443377264235
C         3.58238207713518    4.80662318753290    4.27054469423673
C         3.67457696990978    6.11801296450015    3.84877540260929
C         4.76948181171066    6.88585884441059    4.21685095435297
H         6.62144428545836    6.94001654595502    5.28891312527065
H         6.45989854369861    4.60316563398015    6.05468485671696
H         3.48581304407803    4.58131946676542    7.47873078062529
H         1.64285285290390    4.61299117873666    9.11979502195354
H         0.12268998259175    2.68218104791561    9.30800264512174
H         0.43295393527175    0.71409377845784    7.84789093541781
H         2.26497009817141    0.68189618760152    6.19618119711447
H         4.91430041468595    2.25319924797939    8.47535885761532
H         2.21963438783891   -3.31004698341226    0.06650394449214
H         6.99425997564024    1.67018355171801    9.66199000778158
H         9.05860250810879    1.21532114554215    8.39573735184359
H         3.58464156055605   -2.21597003221747    0.37396430153295
H         9.04832181103976    1.32695755265022    5.93043073126648
H         6.95575130818455    1.89739327207449    4.73401007478017
H         0.97578866122313   -1.39346660126920   -1.00017558522942
H         2.51549781457741   -1.70574759114432   -1.81419513226934
H         2.36963951628098   -0.35043505095921   -0.69079336979240
H         0.10352809336751   -2.74501239974353    0.93499274359245
H         0.03262511439090   -1.78864485241992    2.43283246187648
H        -0.11873854578395   -4.21402524671725    2.93964251822102
H         1.34726356732506   -3.50542875401466    3.62447501007914
H         1.44520101426253   -4.49079000796465    2.15947549811340
H         2.74031809003924    4.18800643927269    3.98453257104126
H         2.89912617014193    6.54201419095756    3.22818247168706
H         4.84527061577262    7.91017231899383    3.88367831265247
N         1.88747673937156   -1.87765952217539    1.51545444270883
P         4.34746245685697    2.52570905566527    5.54807500449476
S         3.90792812465370   -0.20667587816454    1.82945717704050
S         1.73083650592985   -0.54722655934550    3.77862988221944

