35
CSD_code = TRIENI | q = 0 | S = 0 | Stoichiometry = C8H18N6NiS2 | MND = 6
C         0.92160793737504   -0.15015903647754    3.01350304315925
C        -0.61733642186879    3.49855613838283    4.89856394526570
C         0.73636968802867    3.63267285061256    4.19034773080831
C         0.16322387958644    4.90980584973228    2.15015844141289
H        -0.93149637071428    1.49425958111400    4.65216834951855
H        -2.31384121077262    2.37187572139471    4.59668965945008
H         1.51051497406752    3.39812374739149    2.34819506742686
H        -0.43328106153014    3.39310535002676    5.97866145048505
H        -1.20810936430180    4.40680907504670    4.75302447490471
H         1.34482800590848    2.76533132311221    4.45765025631758
H         1.24375801817709    4.54332663416376    4.54195171076068
H         0.69506013986302    5.05851344460730    1.20888265941372
H         0.41102604236645    5.75132435470023    2.81240772652108
Ni       -0.59260278158306    2.11280630654435    2.01296362609620
N         0.65631706978037    0.86011824738507    2.46086927295112
N        -1.33678045216120    2.36989565520842    4.32382174693234
N         0.59886637031798    3.63641659145664    2.73206924163650
S         1.48258728247396   -1.42452115884895    3.75751039372698
N        -1.84253134369267    0.86111131078612    1.56458735005010
N         0.15154509178573    2.37009379326623   -0.29772501244060
N        -1.78387232999160    3.63647762115581    1.29433705046915
C        -1.34838180067947    4.90969613442673    1.87675709940314
C        -2.10744375442551   -0.15152122033417    1.01637847826104
C        -0.56758424380195    3.49911772249415   -0.87213871637997
H        -0.25395660955081    1.49465111818405   -0.62632421423953
H         1.12861844871284    2.37190548900926   -0.57054040495662
C        -1.92130017304292    3.63331685657430   -0.16395757258471
H        -2.69555902433252    3.39803356250057    1.67803827036708
H        -1.88024213623519    5.05793843729283    2.81808940106135
H        -1.59631743441412    5.75145253939257    1.21486022021180
S        -2.66696616267621   -1.42583527148388    0.27122844849209
H        -0.75163400506295    3.39407993764661   -1.95228123145675
H         0.02340320565375    4.40717721642236   -0.72626558388213
H        -2.52995337806833    2.76621969260459   -0.43160923255777
H        -2.42843609519108    4.54422438450889   -0.51527314660564

