53
CSD_code = TRPAMN | q = 0 | S = 0 | Stoichiometry = C21H24MnN7 | MND = 6
Mn        3.38499816012501    3.38499138358024    3.38499774154546
N         5.34325555209687    3.32144792405135    3.37806654945662
N         3.62059552066606    1.37684568720110    3.42485480755056
N         1.54552413348791    1.54552346892977    1.54552120996201
C         5.83662066265284    2.03044713153867    3.43945179380762
C         7.23838627008189    2.06447803864263    3.43991332963470
C         7.58907256613387    3.40339224259054    3.37848454612544
C         6.39698652810421    4.13508726494504    3.34059136634014
C         4.86916077058374    1.01456486191641    3.46321164056457
C         2.60489610404690    0.35611023326649    3.41741702110781
C         1.98519876036560    0.25391951197110    2.00541839989879
H         7.89454959278501    1.21608255472978    3.48040533400066
H         8.58129081333251    3.81239439551042    3.36108515416672
H         6.28352510718506    5.20469824587890    3.29249578066424
H         5.15607001765883   -0.03580514888407    3.52419036573126
H         3.01740317868093   -0.62340359180161    3.69882728341139
H         1.82550734688300    0.62955165304918    4.13650614054117
H         1.16293471852185   -0.47924218163621    2.02779517749187
H         2.75152588993379   -0.11738803206221    1.32038924646368
N         3.37806744338554    5.34324915194965    3.32145904502752
N         3.32145446800062    3.37806393549748    5.34325520210291
N         3.42485860681987    3.62059234105723    1.37685100275606
N         1.37684932415135    3.42485048602239    3.62059279252396
C         2.00542422958709    1.98519848742512    0.25391852136231
C         0.25392019854885    2.00542161500460    1.98519460815564
C         3.43945175302942    5.83661642140488    2.03045933861974
C         3.34059322455170    6.39697786596812    4.13510116599844
C         2.03045293796236    3.43945614664615    5.83661790590307
C         4.13509280461473    3.34060387763634    6.39698763086898
C         3.46321251200100    4.86915875409231    1.01457445825754
C         3.41742252475949    2.60489584832613    0.35611254851921
C         1.01457035038226    3.46321374288487    4.86915800499781
C         0.35611263464887    3.41741846774836    2.60489456982725
H         2.02780169873509    1.16293505079496   -0.47924389947197
H         1.32039662735637    2.75152640885328   -0.11739029943817
H        -0.47924146676064    2.02780082544533    1.16293053491066
H        -0.11738944249152    1.32039229020039    2.75152045533064
C         3.43991236831322    7.23838178130563    2.06449365217154
C         3.37848493489239    7.58906517671298    3.40340884729337
H         3.29249930894184    6.28351401406128    5.20471197250636
C         2.06448244648129    3.43993418545020    7.23838326027243
C         3.40339643268115    3.37851241236082    7.58907210810137
H         5.20470414042937    3.29251101441796    6.28352813697976
H         3.52419043945844    5.15607101654234   -0.03579464323082
H         3.69883547056467    3.01740585234337   -0.62339930186588
H         4.13651040659895    1.82550577970668    0.62955326862607
H        -0.03579919406572    3.52419767231704    5.15606751126584
H        -0.62339874652825    3.69883446733340    3.01740332048851
H         0.62955744695730    4.13650690287081    1.82550647977025
H         3.48040323906844    7.89454690791135    1.21609956456544
H         3.36108595008985    8.58128242474927    3.81241338192613
H         1.21608598170479    3.48043508357050    7.89454481665592
H         3.81239725180411    3.36112794797110    8.58129114975727

