59
CSD_code = TTANIP | q = 0 | S = 0 | Stoichiometry = C26H18F6N2NiO4S2 | MND = 6
Ni       -0.00001338424826   -0.00012017492746    0.00009643581322
O         0.20748905469780    1.80937182214300    0.31311289104251
O        -1.71875962457322   -0.01394268347181    0.94043039938152
S         1.54579633681379    4.26746628713673    0.35496318574547
F        -4.16632324499707   -0.36621363544777    1.84364060306809
F        -4.37609009985145    1.73511726084066    2.24331846386874
F        -3.27901419265358    0.48869093772636    3.60878069697381
N        -1.09285651407167    0.39227427550753   -2.09498986170943
C        -3.51588163276615    0.70421869899081    2.29985067274191
C        -2.20274836581159    0.97490535865944    1.53635816347338
C        -1.70960036247953    2.26136518684084    1.63554333881542
C        -0.49799549285666    2.60087651136741    0.98905972446943
C         0.00906040399355    3.95955633465433    1.09936091843375
C        -0.49712058125448    5.08821103136248    1.69348776919291
C         0.35109800177869    6.19852128492898    1.55108370582295
C         1.48584794300223    5.90262020074102    0.85524399073402
C        -2.10496833315343   -0.39154836271492   -2.45222069680038
C        -2.56286327429741   -0.48232195843400   -3.75717045972698
C        -1.94059880727340    0.27836415592724   -4.73426562374579
C        -0.88936460517218    1.10125063005286   -4.36331593724549
C        -0.50216130784623    1.12503824054180   -3.03267832841431
H        -2.24885439231564    3.00190394054479    2.19748495258568
H        -1.43977687568372    5.12476508107456    2.20753264073927
H         0.13025292431306    7.17360606395382    1.94688931156524
H         2.29285744500424    6.56416610663587    0.60887617490969
H        -2.56077013855378   -0.96527156502102   -1.65523720599246
H        -3.38768467690675   -1.13380613166003   -4.00108650703530
H        -2.26923266749870    0.23215845384930   -5.76256353647588
H        -0.37718061535655    1.71171639124088   -5.09044643371724
H         0.31438507631964    1.75131556097981   -2.69716300147931
O        -0.20763065079343   -1.80956955702468   -0.31296968110396
O         1.71883692997135    0.01355604713769   -0.94012383025786
N         1.09317590731867   -0.39213084151448    2.09502051211045
C         0.49771906766980   -2.60110158753147   -0.98902274120376
C         2.20262885123969   -0.97529231394904   -1.53623607612901
C         2.10523831113814    0.39188532032001    2.45196767238075
C         0.50273261432446   -1.12483585866343    3.03291085259144
C         1.70929994447912   -2.26166012420460   -1.63557837774369
C        -0.00947725928771   -3.95972651440952   -1.09935457482929
C         3.51573181644995   -0.70474911416458   -2.29960898349955
C         2.56333379134458    0.48291339314258    3.75682778015800
H         2.56082410651086    0.96555943521799    1.65482659459844
C         0.89015390942760   -1.10080188502871    4.36347979604391
H        -0.31378171645143   -1.75127418397081    2.69761888411971
H         2.24848849106477   -3.00222992661201   -2.19755373007964
S        -1.54623412391469   -4.26750414834027   -0.35494471803454
C         0.49656217743306   -5.08840342122369   -1.69356167901666
F         4.16664541415399    0.36521417669008   -1.84304278829229
F         4.37573902835714   -1.73580325920987   -2.24370577667814
F         3.27907059096539   -0.48850087899099   -3.60840063465509
C         1.94133715116884   -0.27771870774777    4.73413538741992
H         3.38810359091906    1.13454891026527    4.00051316767683
H         0.37817605518653   -1.71123548777037    5.09078118145419
C        -1.48649860849615   -5.90262590512982   -0.85535473460424
C        -0.35179021205890   -6.19861929545475   -1.55122420872799
H         1.43921397380219   -5.12503852416091   -2.20760904466329
H         2.27013530557338   -0.23132011178761    5.76237135318342
H        -2.29359184565832   -6.56408822277323   -0.60903499378867
H        -0.13107060814126   -7.17370271713298   -1.94710305546451

