59
CSD_code = TTAZNP | q = 0 | S = 0 | Stoichiometry = C26H18F6N2O4S2Zn | MND = 6
Zn        9.45392310544729   -0.17749525745455    6.87080254680838
O         9.07041569128166   -1.12150897709442    5.15528530295650
O        11.40563554581722   -0.71574254342634    6.51091152654565
O        10.11438390555530    0.34325185888999    8.68183371726670
O         9.05392823694290   -1.99483418960802    7.74990343698336
S         7.04219337970385   -2.71033386857304    4.00237479182807
S        12.12882065345777    1.93720577352180    9.85369553076182
F        13.99276845176302   -1.41044226962921    6.39373604905479
F        13.52093325340192   -3.34600750858827    5.59070823810361
F        13.07825788340035   -2.89688719719980    7.64807664422907
F        10.33214304321553   -4.51738119397313    9.80814646484627
F        10.53263389226032   -4.57856813431408    7.66646367066173
F         8.58112910075245   -4.50416834785450    8.56413625077709
N         7.45625404781012    0.29094205286023    7.18853045577509
N         9.92800196942461    1.66842574176087    6.04556996529452
C        13.06692655220274   -2.38095559197982    6.40528631749470
C        11.67251519700547   -1.84119622965554    6.02480057615397
C        10.87440273301419   -2.65222034516029    5.24746025355075
C         9.54703096863972   -2.26775351297555    4.94301647019847
C         8.65801937187540   -3.24644253659040    4.33849877113886
C         8.82082281066815   -4.56859987289488    4.01407264543290
C         7.65296487012932   -5.14699169100806    3.48808999847930
C         6.61744649857339   -4.26384640525195    3.42097918976201
C         9.82815184476873   -4.02048551999000    8.66830702780764
C         9.84895381984013   -2.47974833336818    8.59055922093644
C        10.74716422165277   -1.82158724076810    9.40251687855271
C        10.89336075059245   -0.41687589238415    9.31543690804190
C        12.00829905394063    0.21259736418573   10.00417685302841
C        13.05088892958077   -0.29684191523742   10.73451432680274
C        13.93959242492555    0.69679400737591   11.17944489438429
C        13.56741574340506    1.94598816586212   10.78235023810525
C         6.57600242848849    0.15280129741016    6.20460489360690
C         5.21350162817101    0.04160686355094    6.42560907973935
C         4.74339642638965    0.07845798590141    7.72827385050753
C         5.66113136538119    0.23699972571470    8.75420215461661
C         7.00500850324540    0.33553063739863    8.43605111575180
C        10.22442751288452    2.69326345758850    6.83538511764318
C        10.93126533618950    3.80026196858555    6.39642286128786
C        11.34683136716263    3.84610842008663    5.07564802882514
C        11.02520151969513    2.78245100413588    4.24784839589102
C        10.31846382334887    1.71634317806711    4.77777748364872
H        11.22975707479663   -3.62379411571575    4.95644557233657
H         9.73833406113165   -5.10956848433956    4.15400227807717
H         7.58250083687568   -6.17370125564931    3.17598038465260
H         5.62294163827829   -4.44238820980703    3.06230103207478
H        11.40663070148646   -2.38961781122025   10.03287070009583
H        13.18221178336966   -1.34333603253908   10.93853351280757
H        14.81782372675153    0.49403073844419   11.76602262965237
H        14.06261837676155    2.87531231851810   10.98425265167474
H         6.98431073734886    0.11722130753891    5.20690069385247
H         4.53958380285776   -0.08049720438959    5.59246562380357
H         3.68838778389559   -0.01592125568814    7.93962066540626
H         5.34381961568439    0.27370530887713    9.78454496378470
H         7.75526930838228    0.45115827373423    9.20360755111822
H         9.89224375765848    2.61294980887244    7.85840395476282
H        11.15712762620283    4.60288180678261    7.08054230572252
H        11.90930746589204    4.68840899242255    4.70043792859618
H        11.32492388254218    2.77284989424273    3.21165220945323
H        10.05449995808931    0.86269099201100    4.17190719885038

