29
CSD_code = TTRPNI | q = 0 | S = 0 | Stoichiometry = C14H10NiS4 | MND = 4
C         6.75733635589496    2.94425780834085   -0.23437206943914
C         5.58854052592502    2.14369944047946   -0.46812091145664
C         4.29765499697388    2.60675136034687   -0.73573870467294
C         3.81450015008104    3.89639426466955   -0.84884795224030
C         4.49689427371167    5.09916965248746   -0.72099478131412
C         5.84446766947690    5.28706278266623   -0.44224613843614
C         6.82763593140036    4.33982135338886   -0.22913256937265
H         3.57515978748403    1.81143238914287   -0.87587869011317
H         2.75731790345528    3.97647205427990   -1.06849470860040
H         3.90778877553018    5.99756763167912   -0.85276046014254
H         6.17342360267697    6.31722824327148   -0.38387335400926
H         7.82152481065019    4.71925761414485   -0.02588228405623
Ni        7.84502472407108   -0.00000325541930   -0.00011870537795
S         8.22957940780420    2.13277088272682    0.07223303899294
S         5.76485396086381    0.44455727519263   -0.42019016091521
S         7.46039202931435   -2.13277032534139   -0.07208738185478
S         9.92511742316053   -0.44455670051111    0.42033182958683
C         8.93265047759106   -2.94425721124440    0.23443728398977
C        10.10144636374962   -2.14369874986434    0.46818542080671
C         8.86236190558078   -4.33982072487461    0.22914205155937
C        11.39234306170550   -2.60675084953020    0.73574714172484
C         9.84554027183803   -5.28706280913502    0.44220592023958
H         7.86847108095909   -4.71925580074718    0.02589771561611
C        11.87550797709359   -3.89639448387243    0.84880743509558
H        12.11483670591636   -1.81143179962480    0.87589470359665
C        11.19311750990869   -5.09917011828507    0.72093681674414
H         9.51658811779869   -6.31722809440477    0.38381315994992
H        12.93269375834742   -3.97647173750000    1.06843435912141
H        11.78223044103677   -5.99757009246234    0.85267199497760

