66
CSD_code = TUBCUO | q = 0 | S = 0 | Stoichiometry = C27H34NO2PPd | MND = 4
Pd        5.71705512833070   10.22332244617039    3.03617538332577
P         6.62531462415574   12.26654248915194    3.00715563092108
O         7.38413929783564    9.40228008734033    4.26587467831094
O         6.61153999217414    7.36294438969323    4.67308429859292
N         4.72699907455910    8.35877728583738    2.96609075478214
C         7.46262494687165    8.25811759898338    4.78309552722545
C         8.72951369269001    7.98048271614958    5.59341269655573
C         3.40791784697734    8.27630647471098    3.59189328792935
C         3.36419250099981    9.19504034723595    4.80939830167955
C         4.83322106008128    7.66774051638348    1.68176447664672
C         4.66770607800106    6.15179861787157    1.79963736790122
C         5.11106507637759   13.26792802553420    2.90370166441097
C         4.94248944901747   14.56112190174107    3.36920609462693
C         3.68619671685986   15.14504469398240    3.31795405214749
C         2.61395578734933   14.42656015949968    2.81559111568035
C         2.78498581483269   13.13363786727450    2.34776857684461
C         4.03904067220400   12.53327840616643    2.37428291116682
C         4.30842011885171   11.16435245649411    1.86227635819259
C         7.57640701709761   12.76156971206658    1.53104522540328
C         7.55675750979109   14.08735872095612    1.10859582544302
C         8.24982635019263   14.47418420631515   -0.02318760880787
C         8.95961655563942   13.53035908917666   -0.74654747695728
C         8.96900974153238   12.20789739717068   -0.33921027550555
C         8.28242294623508   11.80012955728768    0.79771775254764
C         8.28428154106088   10.36358512655349    1.21706077676814
C         7.54085420220039   12.94345978783064    4.41977422348982
C         8.75424465677987   13.60339770016090    4.25817952999109
C         9.44154017700409   14.08141610676901    5.35924975285350
C         8.92418903529967   13.88953940005043    6.62854849385679
C         7.72745480321132   13.21305896717952    6.79456039253753
C         7.02123589175585   12.72629324369631    5.70419264352310
C         5.74671268911074   11.96752536658402    5.88704922553548
H         5.40490810780478    7.89729706971372    3.62551960053961
H         8.50153060444555    7.30410651146699    6.41211421017943
H         9.14455486021189    8.91233777385416    5.96743285464096
H         9.45770375365647    7.50354114119163    4.94022820294972
H         2.64282901783945    8.57612167542645    2.86442706675083
H         3.19402417737464    7.24742947918767    3.91035492747770
H         2.39939978896904    9.12442368720700    5.30646576036921
H         3.52658220757114   10.23846468581282    4.50156568084503
H         4.14062376871399    8.89713613595485    5.51620972658161
H         5.83207699907942    7.87628056271509    1.27335714885321
H         4.08454628842187    8.07487647442209    0.98959248967785
H         3.64426541438511    5.88248775425330    2.04869142860519
H         4.92480158820251    5.67446536861493    0.85747089107936
H         5.33011977396875    5.77252320916633    2.57489721587373
H         5.77789187616338   15.09523765871981    3.80315566028682
H         3.54172851690236   16.14951218032585    3.68730034446242
H         1.63207356012863   14.87694981605975    2.79211378861852
H         1.93645256798803   12.58555981510175    1.96193546471864
H         3.36942369916993   10.61328435518707    1.73515558424980
H         4.78335702530655   11.24994248836087    0.87013215076227
H         6.99355965356312   14.81629274613431    1.67361852987389
H         8.23562053425808   15.50642718035531   -0.34014153960469
H         9.50366620398149   13.82440851563097   -1.63204056980076
H         9.51952950531320   11.47701313363863   -0.91474802633021
H         7.27663584198944    9.92929621527203    1.07161974514307
H         8.54222127040233   10.26995630641355    2.27701849083295
H         8.99595959982291    9.78853226840424    0.62785974611999
H         9.16107657691879   13.74284635270592    3.26641301586139
H        10.38060672151553   14.59803330182087    5.22592803173737
H         9.45729811779907   14.25923760836722    7.49218003720093
H         7.33834604779707   13.05395292458608    7.79044637866532
H         5.51939877559092   11.83563244019152    6.94256918064308
H         5.84683165820520   10.97566860212299    5.41826260469670
H         4.91342490123712   12.49127369920156    5.41110251987834

