109
CSD_code = TUBJIJ | q = 0 | S = 0 | Stoichiometry = C38H46Cl2HgN8O10P2S2 | MND = 4
Hg       -2.53408893441713    0.93160701647664    4.72912243193081
Cl       -4.71710821327862    0.22003667191789    4.53515842834756
S         2.12959598942638   -0.45127956525025    8.18208899874715
P         4.47757287851328   -1.97544887230872    7.09854937895259
O         0.39217275467505   -1.27546860385199   10.44579605047417
O         3.16555067949781   -1.62364963741616    6.09845009352071
O         4.21803233083429   -1.18963334624746    8.36170154926646
O         5.74123176984862   -1.82156309935359    6.35696137734501
O         4.10830213261381   -3.50973883859701    7.40040586142848
N        -2.47106259876009    2.47297748939167    6.60397660881847
N        -3.36703767766458    3.70768201309000    8.38381429826134
N        -2.18133756033374    4.28857114803655   10.23303871441279
N         1.04912433739984    1.82139300224996    8.62384586257810
C        -3.47318661771228    3.11897860886005    7.21129084394144
C        -2.21002636110001    3.65949758932982    9.04647788849623
C        -1.09742278616134    2.98868042435310    8.48925823643162
C        -1.30336846905309    2.42542729165860    7.25213577933103
C        -4.78492025189721    3.20565460548164    6.51686026865415
C         0.22638616164145    2.85651995262986    9.20439237532544
C         0.96001063573277    0.51576001553726    8.94419269474308
C         2.64100477189606    0.92083052976279    7.26483997818194
C         1.96863195193304    2.04773539279701    7.62398703865361
C         2.15949554603567    3.42282625129560    7.07757114119907
C        -0.04322497033056   -0.06164425052388    9.90548298875121
C        -1.37132278688557   -0.19633431321560    9.16741941139490
C        -2.51702510585133    0.42585576715782    9.64342810153315
C        -3.72020560693825    0.28485168197986    8.97429289900420
C        -3.79228803384750   -0.49474332452770    7.83148409061429
C        -2.65137960870085   -1.12667785724566    7.35589178344585
C        -1.44339481722736   -0.97375458861639    8.01830618023676
C         3.66308539930992    0.74711268111086    6.20542859029797
C         3.32531716275294   -0.47211806097856    5.33023796580774
H         0.58349865553147   -1.90582876219036    9.74084330786394
H         4.50155255307228   -4.04229222799169    6.71143288901384
H        -3.03392576876655    4.71278834758363   10.55488640785363
H        -1.37127573688886    4.29145804078978   10.82335339750581
H        -0.50743560065114    1.89981999194201    6.74279291186830
H        -5.50060120393903    3.72324300062369    7.14713376501948
H        -4.66450555227868    3.74008401943216    5.57553636788622
H        -5.14651500569287    2.20625801194128    6.27982064159916
H         0.05152923981705    2.60649996845186   10.25545360073223
H         0.77442543812946    3.80341536792696    9.16862053375764
H         2.66475323559569    4.06363666041760    7.80119617439818
H         2.77571897007297    3.37929781988439    6.18594628074492
H         1.20397842455367    3.87288085640109    6.81206008800131
H        -0.18281566368461    0.58599364465230   10.78143505166156
H        -2.47265994595552    1.01392973797733   10.55002084748815
H        -4.60543477443567    0.77379337280761    9.35323214294979
H        -4.73700885549560   -0.63159561673263    7.32708947395047
H        -2.71245781416158   -1.78101536379131    6.49494918863897
H        -0.55609354484826   -1.46245195748973    7.64103343649927
H         3.74230498277371    1.63592408985807    5.57902578801276
H         4.63387149418136    0.54088365829178    6.66370174168468
H         4.13971659631127   -0.61183098600850    4.61001941362884
H         2.37773589341070   -0.31401931203563    4.80180172991425
Cl       -0.34694144106618    0.23011281203229    4.91659371152534
N        -2.60358517086543    2.47970279429717    2.85873361694376
C        -1.60421279973484    3.13395410267361    2.25583798058862
N        -1.71035415191490    3.72295665347920    1.08342862418657
C        -2.86463420087812    3.66695507184496    0.41668045663155
N        -2.89394421359529    4.29686290096983   -0.76946954106560
H        -2.04269019630851    4.72532237737674   -1.08924249647223
H        -3.70072320244223    4.29051047193066   -1.36425179966387
C        -3.97466915613164    2.98851846529181    0.96978970114670
C        -3.76889920716786    2.42506202377408    2.20682321852730
H        -4.56282810692664    1.89356801212312    2.71312018034816
C        -5.29523137663087    2.84965243036090    0.24986727565759
N        -6.11965992414158    1.81789540203715    0.83382824825472
C        -6.03402161046203    0.51102463950704    0.51779702389363
S        -7.20442307299125   -0.45110030522241    1.28530251695330
C        -7.71111354535794    0.92546130200145    2.19872547179612
C        -7.03688434265916    2.04962972708952    1.83457536222109
C        -7.22372413241701    3.42724642738934    2.37602971422765
H        -7.72781438994244    4.06661070115046    1.65031345888435
H        -7.83935883722538    3.38885516583228    3.26828932131945
H        -6.26677301518274    3.87582678046340    2.63887009527028
C        -8.73139209720664    0.75813151249968    3.26092581680553
C        -8.39276498030730   -0.45636700406563    4.14237908201711
O        -8.23572870264558   -1.61256789938297    3.38069838799376
P        -9.54953493154799   -1.96866223435179    2.38507501019847
O        -9.29297011061737   -1.18834353298377    1.11777095867261
O       -10.81182472944593   -1.81151015233512    3.12830507973198
O        -9.18079919072662   -3.50419927346348    2.08908796852801
H        -9.57380023452288   -4.03388309354776    2.78040557100728
H        -9.20569586030159   -0.59104309721384    4.86524617772239
H        -7.44383478809668   -0.29615112650586    4.66773705757191
H        -8.80899377523790    1.65046439208145    3.88251672378602
H        -9.70312776322999    0.54997556471106    2.80559854797337
C        -5.03524349012083   -0.07120502328092   -0.44535308739794
O        -5.47086986557640   -1.29037746474603   -0.97297607335861
H        -5.65566197713197   -1.91564916255028   -0.26178084471194
C        -3.70238759503566   -0.19564334397030    0.28574673074117
C        -2.56358921353520    0.43480668238608   -0.19590289310316
C        -1.35665265736324    0.30457924074712    0.46867092045502
C        -1.27376516008004   -0.47269515597700    1.61230112438598
C        -2.40754677311312   -1.11336995968493    2.09315433891468
C        -3.61946074059758   -0.97074899809363    1.43567588497345
H        -4.50146001059096   -1.46540981718072    1.81755430360024
H        -2.33761703500412   -1.76615598466755    2.95464269123546
H        -0.32610608688927   -0.60072648010556    2.11349442535473
H        -0.47690511352991    0.80015253620443    0.08557253213659
H        -2.61616804975565    1.02080247954668   -1.10342256488172
H        -4.90344916056378    0.56980209157276   -1.32742756680840
H        -5.11517544734725    2.59239006077366   -0.79854716961758
H        -5.84424065963073    3.79635280145076    0.27647344916599
C        -0.29575897518480    3.22953912283387    2.95530700518737
H         0.41696235327904    3.75778848489539    2.33055014081573
H        -0.42474796925603    3.75692848595898    3.89944993944564
H         0.07482676586088    2.23225125418184    3.18745509964669

