35
CSD_code = TUBJEH | q = 0 | S = 0 | Stoichiometry = C16H14N2NiO2 | MND = 4
Ni       11.79349932753089    8.02019603675656    7.08822990790426
O        12.63391625177557    9.65218376055533    7.27575547084642
O        10.90338572611400    8.72383933070754    5.63178007781439
N        12.75605635441437    7.27129930499398    8.48307914730028
N        10.87907245467975    6.41178384588920    6.97450006026853
C        13.45651305783998   10.05186325078509    8.17057637227649
C        13.89913583342486   11.40260021891478    8.14836348871624
H        13.50922124201714   12.03475259774642    7.36581144472614
C        14.77773173396128   11.88062327561108    9.07867621244587
H        15.09318549132346   12.91344146627233    9.03606995937160
C        15.28010536454471   11.05132704428379   10.09202726718671
H        15.97393407485444   11.44752484351170   10.81727649912839
C        14.88447736449218    9.74409835032146   10.14881177758098
H        15.26414604919297    9.09112297375176   10.92292605996123
C        13.97821681027542    9.21428174436522    9.20927981305322
C        13.59878078169159    7.85323508933398    9.27668178161640
H        14.07142135251288    7.25396096154834   10.05861025786344
C        11.14539574235955    5.51838563475097    8.09280849123982
H        10.40369106851640    5.71271521887272    8.87867800422904
H        11.06462994549681    4.46674846379267    7.79136873120162
C        12.54495400972142    5.83747096099813    8.62094128002052
H        13.29265076963941    5.31638938616712    8.00861227167166
H        12.66238805082615    5.51386947310867    9.66273195711254
C        10.02658000197714    6.03844707254046    6.07303187808600
H         9.58619980120038    5.04226425339056    6.15917605227655
C         9.59872372523668    6.82434328843799    4.97746511874348
C         8.68660501320722    6.29689310336731    4.04218204200556
H         8.34044040850374    5.28113139131114    4.17681277860796
C         8.24406543254408    7.04346901383755    2.98607348787218
H         7.54622513344559    6.63003701722422    2.27439638115578
C         8.70393390249781    8.35926179742321    2.83133934011315
H         8.35070281808811    8.94704578894729    1.99606820652827
C         9.58734398296040    8.90601238660483    3.71819841233626
H         9.94541648719093    9.91738778722736    3.60491552055683
C        10.07785443594208    8.16629386664927    4.82874444818189

