61
CSD_code = TUBKIM | q = 0 | S = 0 | Stoichiometry = C26H25FN6O2Pd | MND = 4
Pd        3.79937943877531    7.02280298850460   14.42052966821056
F         4.46938841360707    6.03949165592767   18.15336711574878
N         5.18842929591493    8.47484832458531   14.34995000385540
N         5.37017573797197   12.29704057660783   10.33535514274308
N         2.50912551807771    8.51835746482892   15.34707944097455
N         5.51914319275642    7.59912845898327   16.25813027107569
N         5.87590401757290    8.54076856321382   15.44817866591486
C         7.42856140876232    8.09598037717757   17.73314745534881
H         7.86483166605870    8.74318510778787   16.98821755417270
C         5.30573737083146    9.41965919698142   13.38812606276842
N         2.44488383751374    5.40655963705832   14.46046628406727
C         6.20769686454479    7.47616008325524   17.43657461693843
C         2.79699733247246    4.54083148895503   13.32401129490821
H         2.41606881624476    3.51938996203221   13.48490743658235
H         2.31433308075666    4.94124037016344   12.42268786831710
C         5.36247895231001   11.31296657802152   11.36081064305767
C         7.02229395450786    4.66144952311147   12.72223060250768
H         8.09088938849962    4.71028216826270   12.56868696176529
C         6.08557824107703   10.58386115663332   13.52748816231245
H         6.64950958735483   10.72393476527446   14.43614705864984
C         4.98954589671533    5.69904427999780   13.51091355845104
C         4.57521906245557    9.21612246812720   12.19836782367539
H         4.00430472809051    8.28535740326804   12.10427996225992
C         7.49076462192476    7.02470520828426   19.88454691716256
H         7.98884361656520    6.84968520952407   20.82548289443167
C         4.95220110575371    3.47629532905097   12.53971472571947
H         4.39551744469826    2.59676739161005   12.24457598317701
C         5.66424018800136    6.62989002868247   18.41223833738934
C         2.08085801054552   10.85623502827922   15.12758326892889
H         1.82712662954415   11.68411919289124   14.48473977078545
C         6.10910551350457   11.51785266505575   12.52360244130487
H         6.69257095897213   12.42166940556645   12.61197354199438
C         4.60301577356862   10.15021141441923   11.19711138487225
H         4.05206452437751   10.01562318987010   10.27865553879718
C         1.01896097842143    5.71139480222884   14.44345446078355
H         0.76360395792023    6.25607448515527   13.53242824033998
H         0.75988056300306    6.33014248289563   15.30399741746778
H         0.41777719169919    4.79157959577842   14.48286378173399
C         4.29182645368733    4.54900566391142   13.11863753801750
C         6.28157949346686    6.39943978056670   19.62045133259856
H         5.82027995785411    5.73947200171005   20.33856138749764
C         2.71340377556567    8.69898884981759   16.65149572484019
H         2.95386152161462    7.81224603669065   17.22788795901725
C         2.62827323096298    9.94124418514253   17.25840901610521
H         2.81292736979778   10.03971682849421   18.31654220433749
C         6.32058925484382    3.53347165686021   12.33892301476464
H         6.83557459264476    2.69831572456499   11.88720206248433
O         6.05810122134853   13.29089207088636   10.49793845073428
C         2.18899938343910    9.57857766027709   14.60540852887306
H         2.00524980645235    9.39310375159489   13.55118938586122
O         4.68127334041635   12.10093969523844    9.34772425151394
C         2.78941088487213    4.73593382039039   15.71614660370247
H         3.85633294838239    4.49472013658026   15.72597802559581
H         2.21134010244806    3.80820633550330   15.83606233458810
H         2.57517943711686    5.39429742114338   16.56080143447925
C         8.05596227506579    7.86932170534046   18.94038045785543
H         8.99855930218205    8.35220837033256   19.15122213821156
C         2.31519711449471   11.04510424476655   16.48082752455326
H         2.25233979890321   12.02966497829379   16.91911251658527
C         6.36297521020218    5.73404458678073   13.30724402510058
H         6.94335664285524    6.60077646705861   13.59953172347645

