53
CSD_code = TUBTUF | q = 0 | S = 0 | Stoichiometry = C18H31NiO2P | MND = 8
Ni        1.22475572925447    3.46375001145765   -0.08925473054885
P        -1.31688435047757    3.46346252924957    0.38425369293215
O         1.02462145578244    2.04176662670273   -1.41650186062629
C         0.88128341903171    0.98952526866865   -3.52964843335751
C         0.92946640604296    2.23004772428028   -2.65494391058819
C         0.86471868187344    3.46372791082315   -3.30968201863980
C        -2.23957096727154    4.87113779528344    1.14641102772648
C        -2.14983252045787    3.46382013413463   -1.26179240926345
C         3.43854784822680    2.77827246731869    0.51701025764641
C         2.29832453117653    2.33503892642473    1.34675920046640
C         1.76578274949642    3.46391431510063    2.01053256771049
C         4.39568164003564    1.82944062504287   -0.12624697838296
C         2.08246958864049    0.90267646918424    1.71377609069795
C         0.82298416849355    3.46385391631365    3.17395228585264
H         0.83431772379281    0.10216202249659   -2.90380795473353
H         0.01346200854860    1.02163080943280   -4.18390529750949
H         1.77460923573700    0.94339168358458   -4.14896918826687
H         0.78506368651175    3.46375083805500   -4.38547062960950
H        -3.31036438619807    4.77897628630671    0.97414241127561
H        -2.05109619542159    4.89735092656367    2.21695769989252
H        -1.88080480180107    5.80050693794848    0.70964420379183
H        -3.23373140992978    3.46399349675112   -1.15261844128390
H        -1.83853707707528    4.34545660687550   -1.81743331790384
H        -1.83884226048559    2.58222193694705   -1.81766779541818
H         3.86416396053983    1.13323122010749   -0.77407130966661
H         5.13195214905313    2.36192889107945   -0.72302642454461
H         4.91849344651269    1.24794639774258    0.63513201584538
H         2.87501417286438    0.57147817094781    2.38862154477102
H         1.12529833398417    0.76545311622281    2.21080074060700
H         2.10701114314319    0.27377960753453    0.82656825238169
H         1.39226897684485    3.46244666303030    4.10603802205406
H         0.18955442834590    4.34783462824794    3.16544208154678
H         0.18771599529871    2.58119481270456    3.16391439760649
C        -2.24026061940560    2.05604957874103    1.14609016471385
H        -3.31100096267242    2.14873496276552    0.97377825944714
H        -2.05188459253608    2.02952292600512    2.21664775146362
H        -1.88190597525501    1.12659471210686    0.70916821706046
C         0.92930103848572    4.69737285048427   -2.65487782657101
O         1.02432296644690    4.88560534822519   -1.41641070085842
C         3.43850133707182    4.14939671604753    0.51691082402172
C         2.29831595576307    4.59272030938869    1.34669016863903
C         4.39565422822254    5.09816491852523   -0.12644338260105
H         3.86401596238922    5.79459339578977   -0.77398999269032
H         5.13163577675348    4.56556806246039   -0.72355919746059
H         4.91880081880421    5.67940346789088    0.63495852003271
C         2.08252205542510    6.02514756895605    1.71349181358113
H         2.87508058517790    6.35642220925930    2.38827771249379
H         1.12535844944648    6.16251430996539    2.21048307018681
H         2.10708314747661    6.65390031024484    0.82618631162141
C         0.88102550929679    5.93794552327746   -3.52950876168187
H         0.83407444135506    6.82526787449079   -2.90361072433095
H         0.01315833141918    5.90586044810957   -4.18370717952524
H         1.77430403622099    5.98414473470204   -4.14889084000481

