33
CSD_code = TUBVER | q = 1 | S = 0 | Stoichiometry = C13H15O4W(1+) | MND = 10
W         1.49223330297457    0.06007902051005    2.31510188782796
C         0.98390117055486    1.61378770525925    3.48603062910533
O         0.61619342069974    2.55827034821244    4.00546739896143
C        -0.34743886826712    0.67220477426797    1.90099421032348
O        -1.41132852698491    1.01576827505427    1.65708862703938
C         0.25964495583928   -1.50471064039425    2.19253011080435
O        -0.49622053072146   -2.33694324208488    1.98333138431820
C         3.07782907744789    0.22586093408599    5.19342312753252
C         2.31414083464914   -0.79644067985082    4.38598655415574
C         0.96840615532833   -1.03137897967781    4.67122046951543
O         0.26342546194123   -0.18948907073685    5.41379195369109
C        -1.15250354188645   -0.40007532502907    5.50242239903238
C        -1.71652975691248    0.59594795369023    6.49748719462573
C         2.23449895849870   -0.11952675008315    0.14977518028059
C         2.49642155071398    1.20890563214279    0.59072848057078
C         3.45311485241731    1.13775562519274    1.64246333252350
C         3.78547772610054   -0.22165600954682    1.83822420938495
C         3.02051296176305   -1.00577101723270    0.93775371471938
H         3.91505031387970    0.65386597255173    4.64633343219628
H         3.48888589214056   -0.26966022830794    6.07491290203585
H         2.42330919947303    1.02206701098418    5.54035781382878
H         2.88277063644164   -1.69038760712895    4.12438222300068
H         0.54050143198809   -2.02855630921196    4.53090401523704
H        -1.58490096102576   -0.24622535714758    4.50182174519988
H        -1.35115948022018   -1.42947822682398    5.82166627384547
H        -2.79011384204579    0.46017087939491    6.57986898480043
H        -1.51306675817377    1.61166988641737    6.17112360509787
H        -1.26610572115048    0.44522172201320    7.47412542065357
H         1.67057949581491   -0.38853746253962   -0.73456303306361
H         2.17133994010649    2.11392890081938    0.09202548432964
H         3.97520197307853    1.98392673085169    2.07027897272876
H         4.59895589177182   -0.58836142619088    2.45009506416716
H         3.17627278379766   -2.05773303944365    0.73314623152908

