81
CSD_code = TUBVAP | q = 1 | S = 0 | Stoichiometry = C36H32CoN10S2(1+) | MND = 6
C         5.81628070895961   -1.17520026766064    5.83862004006487
H         6.73367825261133   -1.54497832274541    6.26807680949145
C         4.68073610039896   -1.95867228010318    5.81447214163983
H         4.71508981809573   -2.95207390151660    6.23282319764079
C         3.48505467232135   -1.49157019315424    5.26539436882067
H         2.61855942371296   -2.13392147956136    5.27745658792250
C         3.38348842397941   -0.23254465742424    4.71327307669719
H         2.45105515966906    0.12060427294215    4.30697790775760
C         4.52088316275521    0.57097902082052    4.72016862843034
C         5.72433309691840    0.09628607045025    5.29109399128801
C         8.00849232695925    1.05628188725768    5.63007977719462
H         8.69424284722705    0.90175862225954    4.79438237189716
H         8.11077558087622    0.22393392893959    6.32273501958506
H         8.27481841453388    1.97491542375639    6.14869599773543
C         6.02312778331478    2.14119603262059    4.54773729323654
C         6.48196185623138    3.43861188022306    4.16780238900895
C         7.85416822008073    4.00507843567022    4.33274182202897
H         7.89443354521169    4.95148466490559    3.79773929213677
H         8.61099125896123    3.33372376348642    3.93343555054714
H         8.07575056822944    4.19903146672767    5.38179925378345
C         4.49208783304763    5.76729542891300    2.65625641381105
C         2.62199028226910    6.97584884338065    1.67984756266778
C         2.32160546111731    5.66938769205320    2.10599313843879
C         1.01471113178127    5.20731551417404    1.96079215885453
H         0.74350717792501    4.22066887017461    2.29769193484488
C         0.06728485031085    6.03600226449190    1.40057558954971
H        -0.94584156510811    5.67817982953128    1.29468936342022
C         0.37135467311040    7.33118340927549    0.96913451730656
C         1.66674284019384    7.80115262621016    1.11557807476168
H         1.93464551477754    8.79753380191983    0.80187107151301
C        -0.69800014836140    8.19149453133755    0.37564638918886
H        -1.45704655742205    8.41551173899674    1.12410835556919
H        -1.18873301240342    7.67575541408981   -0.44774922322066
H        -0.28784890467739    9.12773030810347    0.00857022922130
C         7.20454778483690    3.00974255245879   -0.53188115446217
H         8.17651093896013    3.46976020991209   -0.61707055292963
C         6.46051036193970    3.21218302742881    0.61077632259434
H         6.83052925181323    3.83100054207298    1.41034239298930
C         5.20811151338287    2.60748902796792    0.68335690085875
C         4.73041489470881    1.82824088232295   -0.39557323131672
C         5.49095893873878    1.62619307542667   -1.53823783206856
H         5.13495048032057    1.02557356139658   -2.35999055197700
C         6.73229042654093    2.22667441663219   -1.58696539677883
H         7.35033917168424    2.09257474838332   -2.46048025283341
C         2.61869127316263    0.57200034333646   -0.85844477730625
H         2.62497215697165   -0.46289481295215   -0.50976572848170
H         2.98429894641869    0.59646363970464   -1.88261265629550
H         1.59863554007394    0.95009239744325   -0.84437232501452
C         3.21746632238844    1.88142569824507    1.19554683222488
C         2.08107460930096    1.75456666512623    2.05049798754758
C         0.83216243012427    0.97538970451123    1.79726889063592
H         0.24681749372338    0.96974658217872    2.71427548227304
H         1.05559039780955   -0.04868790563803    1.50692024580424
H         0.23192134988716    1.43880759468066    1.01479882097326
C         1.86363850856933    3.23815868738923    5.11949734300587
C         3.31699810495369    4.57499813202992    6.17986165415675
C         2.28069878940427    4.54002270153763    7.13031605232229
C         2.35501071597950    5.23705217401168    8.32229094509626
H         1.53980391458066    5.18635131699156    9.02644168543817
C         3.48146656460506    5.99888217989521    8.58858111049842
C         4.50918230403740    6.04378876925725    7.64094887608093
H         5.37969252744072    6.64804709646023    7.84771800743728
C         4.44316990102187    5.34949386800638    6.45285464339787
H         5.24497298582900    5.41923138865397    5.73677867447875
C         3.60534513853304    6.77397430258780    9.86127523879353
H         2.73240315867693    6.63281456340529   10.49171664477175
H         3.71261360815818    7.83615444150844    9.64661815497575
H         4.48956466538328    6.45800416393087   10.41274145541791
Co        3.86929164288396    3.30852347114509    3.39977861800433
N         4.74688949002240    1.84063481012138    4.26115138032219
N         6.64634213094446    1.11306413329029    5.17253194622284
N         5.50384246196574    4.11749207623766    3.61964911854740
N         5.64318012391912    5.34158207801602    3.16006952360300
N         3.39768509190441    5.00709648363049    2.64043126644534
N         3.47152643063801    1.39379648016473   -0.04280293213863
N         4.24557159112676    2.61059372042865    1.65663602868021
N         2.27119535691783    2.43656407763273    3.15354999595021
N         1.39475366184582    2.48554374005254    4.13271468613439
N         3.06021255200775    3.82191621510624    5.06233905097230
S         0.96226096197587    3.53752593103855    6.56289140047820
S         4.30451253627838    7.34936640628233    1.98761892164614

