59
CSD_code = TUBWIY | q = 0 | S = 0 | Stoichiometry = C17H32N4NiO5 | MND = 6
C        -0.00114569077579   12.93234744325384    6.97343252970669
H         0.50752362262598   13.04325008775753    6.00777546866363
H        -0.99283838408631   13.39397384164175    6.88901871385871
C        -0.20619380551161   11.46043579549080    7.32233511285924
H        -0.74482275044567   11.43776964326470    8.27474879408978
H        -0.82366510770094   10.97787015839927    6.54975283724494
C         1.68026448538303   10.48287708330058    6.19107808773194
H         1.87750718627729   11.41580424364829    5.66806187765545
H         1.02830479393925    9.86437999243269    5.55573505715484
H         2.62551272374395    9.95614127919115    6.32353139242229
C         0.77807338234483    9.45472689694703    8.12103002916552
H         0.29824037620603    9.61463364645259    9.08279935164472
H         1.69867799537317    8.89101620400286    8.27366215199450
H         0.10562445467933    8.84958819823952    7.49617469319105
C         4.22469936083733   14.35659262061809    8.11041716547458
H         3.52386295760741   15.16260886671966    7.88339297054363
H         5.16595497027444   14.56713336638905    7.58330612673801
C         4.48880521253981   14.29286224121601    9.61598401864535
H         5.22991653323329   13.51039809873532    9.80105703504540
H         4.90146864892014   15.25251784849142    9.96465643186845
C         3.59295372196969   13.41480034985006   11.65982365706036
H         4.18292617304514   12.50461639775882   11.57082245776695
H         2.67298590565734   13.17343682358241   12.18705718363083
H         4.15278199076040   14.15232456441902   12.25358665669191
C         2.39219947061543   15.10327742529816   10.50309029871583
H         2.30897315309995   15.65522615498541    9.57052038815412
H         2.78847210681457   15.78141669616321   11.27081917198486
H         1.38980544708413   14.77689464329986   10.78080846252607
C         1.30503717573404   10.87893830331230   11.15316532603725
C         0.10312261835453   10.41292946052918   11.93214969308863
C         0.05341900944463    9.04743599182065   12.19330905791440
H         0.88023385410317    8.42842756141473   11.87639924790225
C        -1.03489148799806    8.48982199649807   12.83530982896935
H        -1.06762540020621    7.42641169740183   13.02194496389173
C        -2.08369258930119    9.30600119759310   13.22627533045825
H        -2.94624382345122    8.88062445332508   13.71933861765380
C        -2.02579113263023   10.66557582881454   12.99141629208047
H        -2.84329827897013   11.29801746093487   13.30668939221052
C        -0.93499451307501   11.25056455993519   12.35187450022701
C        -0.91432900387639   12.70885216227440   12.10660119139708
H         0.05211134693025   13.15274738921150   12.34635816461217
H        -1.69547600795654   13.21934373380340   12.67198933165865
C        -1.18039647272142   13.03681456050507   10.57265819377665
N         1.06601787582725   10.74193093997537    7.49083783018780
N         0.79090169470248   13.57056191682076    8.02010911236363
N         3.26356493114668   13.93751416080836   10.33720520595895
N         3.63639494172523   13.08719839846221    7.67305215230424
O         1.10757706105774   11.75734885818099   10.27071123898433
O         2.39158157193043   10.31372447286380   11.38780331053941
O        -1.85085302664921   12.24298402137829    9.92677247564352
O        -0.66205681738016   14.10853462385751   10.20248669279447
O         3.80554041156852   10.79937597789524    9.33654641285502
Ni        2.28366998727436   12.34802800979934    8.93369036205240
H         4.34689626219914   12.35859103260097    7.74696127920320
H         3.35353460115891   13.14834065513942    6.69879134025361
H         1.07688960944235   14.49680329167704    7.71591916175460
H         0.17054371668675   13.73508088852749    8.85431654701772
H         3.61131075975616   10.00997475651701    8.82488967760470
H         3.37123219065741   10.60708102657370   10.24594994637956

