50
CSD_code = TUBXEV | q = 1 | S = 0 | Stoichiometry = C24H20ClN3PPt(1+) | MND = 4
Pt        5.75833608878352    6.16935423133287    4.09235389805041
Cl        5.27030726646856    4.82176642327906    5.79917208498346
P         7.73611453222303    6.57831296443665    5.08345086884678
N         6.06759085005982    7.36770928652158    2.53448157875303
N         4.96511835948681    7.39685691556420    1.74325290145294
N         3.95954436430909    5.85171039282861    3.12175634273279
C         8.36711943420403    8.22742277638738    2.82582530680634
C         8.78013290114168    7.64033991008310    4.03718956411394
C        10.07364416601897    7.85966437538188    4.50159591157822
H        10.37490101107092    7.39983565293050    5.43222743326076
C        10.96864384502706    8.64973937370710    3.80528815108277
H        11.96580807405347    8.80528463820324    4.18573444588882
C        10.56936288135041    9.24270157483447    2.61610035261463
H        11.25367556210632    9.86612781097704    2.06259503992954
C         9.29288299716347    9.03372087319495    2.14044995750708
H         8.99560394976734    9.49916124805103    1.21209616424434
C         7.07889838519546    8.09322860490881    2.19020753447144
H         6.97491212745521    8.68437264957771    1.27805672766066
C         3.87371489758479    6.61569571573935    2.02420291160656
C         2.73963796646940    6.61665474548596    1.20946689948401
H         2.70039682288964    7.24358994778107    0.33351717775890
C         1.68375461211060    5.80029702481264    1.56012587209216
H         0.79264987291692    5.77841814411576    0.95320007997207
C         1.78174268087193    5.00916625004366    2.70170436596201
H         0.97369555883632    4.36288099948741    2.99948097873569
C         2.93599024729663    5.06474763544708    3.45491311650464
H         3.06525115814941    4.47439012297960    4.35236129556377
C         8.68288524658671    5.04327856397269    5.22099328158066
C         8.40407620144252    4.06497188002735    4.26879628121177
H         7.62493827162259    4.25384353538128    3.52967954311186
C         9.09350062326190    2.86831751228424    4.28417723399463
H         8.87388441421212    2.10657023933200    3.55204857898638
C        10.06263740122167    2.64472642403397    5.25089197146050
H        10.59732602140199    1.70770668218310    5.26889507099099
C        10.33750935313876    3.61403046960178    6.20190870775736
H        11.08450169443639    3.43104910254555    6.95909396860666
C         9.65183050936068    4.81646548935504    6.19198269678716
H         9.85519565865104    5.56283592103125    6.94725738491153
C         7.72646717782041    7.37406713312808    6.70572776301455
C         7.43468667659500    6.59795789844515    7.82668650177640
H         7.25431474193653    5.53843193815846    7.71258593526891
C         7.36954169922189    7.19181643075402    9.07327446829384
H         7.14726844479214    6.59113877938923    9.94170221383790
C         7.58324121485548    8.55529530461692    9.20640383997728
H         7.53112707329643    9.01594296611258   10.18082221648867
C         7.85695774594091    9.33009198521436    8.09030284324434
H         8.01550598954863   10.39256557929112    8.19494941211775
C         7.92332721009351    8.74662937165744    6.83798318231324
H         8.13150039636457    9.35112312280393    5.96600288695173
H         4.96334562117874    7.99009338257154    0.91862705565305

