89
CSD_code = TUCDOL | q = 0 | S = 0 | Stoichiometry = C34H48Cl2N2O2Ti | MND = 6
Ti       10.87527191938154    4.63885055907896    8.40430878542542
Cl        9.17887085865269    5.81192043728660    9.41636795414149
Cl       12.57326163014493    3.46945113432723    7.39173308087621
N        10.01345018093983    5.16861122728542    6.57168060096255
N        11.73544267396079    4.10904200975387   10.23778443805933
O         9.78443855620782    3.23750478429119    8.35751863068287
O        11.96547411710878    6.04147594883319    8.45151380289029
C         7.69674018584950    2.17319916625223    8.77091774163130
H         8.14989554233562    1.18516524199458    8.70179640969348
H         6.68194318235188    2.14443186131487    8.38823497164088
H         7.68488522060875    2.45626420386857    9.82410275158747
C         8.54313019869419    3.16959607702976    8.02581600408789
C         8.01434362898136    3.95445791887288    7.02716177148112
H         6.97387489001894    3.83973285480766    6.76717146326788
C         8.77166303202252    4.90238854046286    6.28836399001814
C         8.04635425462795    5.58622152808890    5.16001702982946
H         8.73009459188979    6.16351193447292    4.54198703222923
H         7.30144298417726    6.25812115177055    5.58558004485234
H         7.52366489979029    4.85402397952748    4.54778509645207
C        10.80233209825111    6.03970365116871    5.77787730163286
C        11.61687121270463    5.48998189037723    4.77062181212251
C        12.49915654557544    6.32667378353603    4.10084628418964
H        13.13361319334791    5.92086629327675    3.32905120912732
C        12.57674352683487    7.67325749452596    4.40023615185115
H        13.28460788697830    8.30407695888909    3.88256533812388
C        11.71687573544288    8.21607663821882    5.33473820853111
H        11.74479877950704    9.27844596069245    5.52482831971049
C        10.80575184516518    7.42477870315463    6.02213985362460
C         9.80084237192257    8.08837524034125    6.93977463060927
H         9.14908635602147    7.32655431947246    7.37725042778494
C         8.92881097936007    9.06230303193375    6.13792991737020
H         9.51297815029000    9.91112215517591    5.78981617085971
H         8.12370182932747    9.43721803515594    6.76565253586027
H         8.49103022540688    8.57465182542340    5.26971013488116
C        10.47347816252858    8.82613508335233    8.09946143573810
H        11.15964301901318    9.59057765867576    7.73981877613954
H        11.01703744641261    8.11838298137291    8.72230519291424
H         9.71443400833363    9.30192736253200    8.71604048918079
C        11.48031820580955    4.04360658447331    4.34218634585215
H        10.96475693857276    3.48722597376223    5.13499918170272
C        10.63593354016386    3.97333496543214    3.06373275418149
H         9.64229231936266    4.38398024370536    3.22067440112558
H        10.53303842885070    2.93865411630894    2.74402122445313
H        11.11593478439924    4.53495980208377    2.26449836484150
C        12.82883902940678    3.36461581903313    4.09827838310265
H        13.33158201711450    3.77660134730511    3.22662015466453
H        12.67113162842225    2.30245189709697    3.92558311842423
H        13.46658782525369    3.47441663336573    4.96983637384824
C        14.05167763537392    7.11217960451767    8.04650356270526
H        13.60936190660395    8.10330056941036    8.13939776864750
H        14.04669579923343    6.84770063454534    6.98850757249106
H        15.07151036105858    7.12495223934729    8.41652034361852
C        13.20566117853684    6.11139957774268    8.78640848785756
C        13.73340205280176    5.32705784530067    9.78603411012207
H        14.77293631917338    5.44395152422621   10.04881673392942
C        12.97600718606145    4.37844510924990   10.52371884884755
C        13.70032289363967    3.69783141669015   11.65471571878277
H        13.01756905092163    3.11501311366327   12.26859544058256
H        14.21425066659971    4.43323082167632   12.27055058303640
H        14.45253676033518    3.03208590617355   11.23242395812178
C        10.94823980826904    3.23556466678943   11.03085266622699
C        10.13338064912726    3.78182539502032   12.03964990688577
C         9.25512716641595    2.94163657746340   12.71043208615606
H         8.62095512353223    3.34478428571586   13.48388095413495
C         9.18136386603237    1.59505612705720   12.41028198229504
H         8.47684150476935    0.96147461082529   12.92911940334594
C        10.04098636159562    1.05589637165339   11.47345606102497
H        10.01616450967399   -0.00641502178275   11.28253992842139
C        10.94847025443391    1.85066436863335   10.78528188996799
C        11.95365020617712    1.19096030675610    9.86515070048088
H        12.60255733957474    1.95506742734836    9.42744672168913
C        11.28063225827109    0.45292073104606    8.70584608101612
H        10.59870300888038   -0.31518524915394    9.06580465743828
H        12.03978787711176   -0.01837805559446    8.08597741806047
H        10.73230138691868    1.15976532226223    8.08611582784388
C        12.83012230625234    0.21849690200416   10.66386935716553
H        13.27019199644672    0.70706218804887   11.53040339069888
H        13.63365787980437   -0.15491460256472   10.03324585487337
H        12.24882207529690   -0.63138711693491   11.01417645229788
C        10.26441751312882    5.22855385119001   12.46854123203716
H        10.78069002102844    5.78653364350535   11.67734043428881
C         8.91281582790401    5.90305907659025   12.70803519954611
H         8.40746099232414    5.48785910234309   13.57663865152346
H         8.27913798362584    5.79311573187387   11.83355100759396
H         9.06654081120608    6.96535512151528   12.88339580097248
C        11.10431836900302    5.30174812207228   13.74974953125612
H        11.20495757694693    6.33709731983930   14.06800695106443
H        12.09893505973084    4.89189813512898   13.59690531433820
H        10.62228781864555    4.74100928964108   14.54837531635646

