34
CSD_code = TUCDEA | q = 1 | S = 0 | Stoichiometry = C8H17ClN7Pt(1+) | MND = 4
Pt       -1.59401949948990    3.62675898669449    4.50860160423222
Cl       -1.08679594334504    5.58727983570797    3.49154515545642
N        -0.01870568458093    4.01773227554486    5.78870652268689
H         0.65740972236603    3.27119513941067    5.95559305459508
H        -0.37154580120444    4.34492446189485    6.69135204944824
H         0.45878687015808    4.80772605293290    5.33789745681919
N        -3.18577200261044    3.49011594264079    3.19572346971597
H        -3.34564562251886    2.59854038109064    2.72495643113092
H        -2.97626040914377    4.20875702921649    2.49258513424993
H        -4.04887773534350    3.76708627131059    3.67004671187076
N        -3.30790218293328    0.76488668941060    7.14106404157820
C        -2.90169365307281    1.79963055533112    6.47034616845329
H        -3.29576908216606    2.75716576787483    6.79088325981156
N        -2.05559064113703    1.82053697676898    5.43173071013176
C        -1.60319038547684    0.59395728922176    5.08748866767216
C        -1.97876070162488   -0.59138188334533    5.74503233374790
C        -2.88673748822365   -0.48803054610197    6.83494695228241
N        -3.34101472687170   -1.49662974330010    7.55671303510855
C        -4.26302820472331   -1.28374258886666    8.64607096645614
H        -3.82197756262348   -1.64075302751667    9.57787912686221
H        -5.18394653849812   -1.83923804522786    8.46343499717633
H        -4.48487214287043   -0.22391114044873    8.72912548909937
C        -2.96754644867369   -2.86871866041805    7.31992308614554
H        -3.85776765231828   -3.45455565625861    7.08355886638032
H        -2.51450532410009   -3.28442829345353    8.22162314917803
H        -2.26200600865639   -2.93602506966642    6.49626193352424
N        -1.34548028467382   -1.64592309316361    5.15148078449607
C        -0.63202293104170   -1.13599637226154    4.19711148459741
H        -0.01135395801665   -1.70896460645779    3.53832753076341
N        -0.74157198843764    0.22394883351969    4.10068758937840
C        -0.06071955882043    1.04875481474865    3.13681300746138
H        -0.33088062804595    0.74408914036707    2.12509313773681
H         1.01913422612659    0.94833983808626    3.25282004938109
H        -0.34317002740497    2.10327244471613    3.28387604237248

