50
CSD_code = TUCGEE | q = 0 | S = 0 | Stoichiometry = C23H22ClNOPRh | MND = 4
C         3.69032216724841    5.59793799109628    6.40493360386190
H         3.33675372970117    4.99256175303863    7.23760321155435
H         2.87698465423695    6.24153804495712    6.07920350059371
H         4.50710030254229    6.22417515699598    6.75440983056968
C         4.15809392533377    4.71383437000270    5.25840205130181
H         3.32602568288575    4.10983439215636    4.88365610163033
H         4.53214845725725    5.34787387497718    4.43263083576085
C         5.30065411280298    3.79078022882949    5.69733719002167
H         6.11067075287145    4.41968992062971    6.09260910214437
H         4.95813422520343    3.09861312526144    6.47947826016025
C         5.92948655387062    1.80813275062956    4.63349435851603
H         5.67317512783543    1.30773596997023    5.57261792562924
C         6.36118669337851    0.91029432538979    3.57450999709870
C         6.18253541636737    1.19634608831795    2.20867190529067
C         6.58139698316622    0.26515359509111    1.25884022330836
H         6.43589225750118    0.48022314095651    0.20967493855964
C         7.16201550834188   -0.93337132437120    1.63921330586354
H         7.47559668331872   -1.64076986525810    0.88618449799813
C         7.33024243561935   -1.22415163511320    2.98318057054246
H         7.77694188333786   -2.15948273291268    3.28489217065750
C         6.91842933861825   -0.31603334852596    3.93966671570959
H         7.04623046258170   -0.54394883468280    4.98846073647347
C         3.64065782052741    2.42570574039175    1.95689807857377
C         3.11113942556994    1.14188665043017    2.01182807917511
H         3.76158058941083    0.28389464532420    1.90978070706556
C         1.75040473516002    0.96731376432318    2.19620033774055
H         1.33925529699809   -0.03075593056515    2.24061386401380
C         0.91594849414730    2.06582054854808    2.32479518317142
H        -0.14433097002239    1.92230059388463    2.47126953859262
C         1.44029585837085    3.34812260638959    2.26983677027470
H         0.78980937362462    4.20420924387004    2.37261733265161
C         2.79916576314009    3.52665353142531    2.09166697818008
H         3.23309007701367    4.51998600087235    2.05647313149241
C         5.62978647586624    2.82580908144705   -0.05326298703443
C         6.91050957328434    3.12965322974333   -0.51170665528571
H         7.69572268340821    3.31170438316879    0.21391330880834
C         7.16657775567514    3.19572665401259   -1.86686264033357
H         8.16049183299928    3.42798282122467   -2.21923355672809
C         6.14118135870421    2.97196601232879   -2.77402003615626
H         6.33750064614938    3.03001070977776   -3.83429943914639
C         4.86513953958533    2.68058346210700   -2.32248162079320
H         4.06698987663375    2.51148653275216   -3.03051891798319
C         4.60438103635039    2.60580419504655   -0.96441779480826
H         3.60741176163167    2.37859994450577   -0.61379704398187
C         6.85558447580396    5.51812353974745    1.80118597559396
Cl        7.68033014478030    5.46502887345873    4.55037504730816
N         5.82795460834830    3.07955546127673    4.56150777913537
O         7.16008529601946    6.29122276258365    1.01151195751838
P         5.41696318525932    2.79012538528499    1.75160409740377
Rh        6.36615593153955    4.31011256921061    3.08695149230278

