25
CSD_code = TUCHPL | q = 1 | S = 0 | Stoichiometry = C3H12CuN6S3(1+) | MND = 3
Cu        1.65529559124189    4.03081436235423    0.56149837475306
S         0.17429428671809    5.78840309569884    0.15905179415616
S         0.81276699632207    1.86022402313381    0.60477541574179
S         3.91730549967030    4.46667224823977    0.86520179926956
N        -2.04327127022174    6.06466543336436   -1.15264662034726
N        -1.09395451431812    3.97198069853000   -1.28650165302253
N         3.16981029558810    1.25028470745887    1.64220132086921
N         1.68353988395697   -0.47598677938609    1.31117238873241
N         5.33484589500953    6.49241681031772    1.64681535812707
N         3.05954396488321    6.83373439110477    1.68452070739924
C        -1.06820208708723    5.21839357536969   -0.81965292806274
C         1.98220239511389    0.82065885096790    1.22495138254142
C         4.09870502995789    6.04269437148181    1.43142425956116
H        -2.00202591837920    7.01240344984001   -0.81754080585761
H        -2.81028603482167    5.79191274535500   -1.74482834223322
H        -1.87456760201607    3.62962386146217   -1.82379518227084
H        -0.40542692273034    3.30241910657476   -0.97496048214503
H         3.42580377442983    2.22211257271734    1.53055917831415
H         3.87284113652184    0.61015462521742    1.97518165009407
H         0.77154845974804   -0.78592796073016    1.02073402099338
H         2.32642821822357   -1.14927440520483    1.69409243716972
H         5.51502873731054    7.42755470955125    1.97327196775621
H         6.11479794911735    5.88551538043261    1.45830840187829
H         3.18487283002684    7.79132504388688    1.97211374497401
H         2.12460340572948    6.52732508227574    1.45975181161247

