50
CSD_code = TUCQOZ | q = 0 | S = 0 | Stoichiometry = C27H14BrCl2MnN2O3 | MND = 6
Br        5.45451348321813    9.46612616433109    4.03102250374997
Mn        6.48801420972653    7.64626352245963    5.32944524213619
Cl       -0.32601749834759    6.39895906640038    7.36731072981757
Cl       12.72397749847577    7.90221110696658    1.59746857936452
O         7.71880742223024    5.50317527163304    6.89400633817305
O         5.01428986863452    8.68643029305432    7.64876965916847
O         8.77737252496186    9.40331382978766    5.87887861427832
N         7.25568514144285    6.95628844366138    3.59396807284843
N         4.92456054062135    6.51288501352299    4.69627003340975
C         7.22886539883507    6.34054842703902    6.27704958946295
C         5.59836232795989    8.26781222139893    6.75690910463184
C         7.88823097188348    8.71282075616097    5.66618609750935
C         6.42172765096289    6.23592177425229    2.91395544337964
C         6.43759204562940    5.59553323558145    1.60723180044670
C         7.33485528049102    5.49070816972835    0.57120255044063
H         8.31212444538984    5.94680892544221    0.61347824769088
C         6.95333098901526    4.76691186685489   -0.57286921604541
H         7.66281253691803    4.68957922925078   -1.38335365915228
C         5.72768572468523    4.15841572607124   -0.69443098122211
H         5.48029081540500    3.60677851900958   -1.58926765238535
C         3.47995465836343    3.69323652223304    0.38197370630734
H         3.12787538003429    3.11699942303273   -0.46075300764794
C         2.67383228347697    3.87933689094315    1.47882575344976
H         1.68776878613785    3.43903768756510    1.48896087702439
C         3.07196725832729    4.63091429317181    2.59875631673206
H         2.39412926176663    4.74816288011685    3.43057922563110
C         4.32423586069329    5.19859636288207    2.59539052487886
C         5.10952716341571    6.00714300605351    3.51768279676980
C         4.77699651375578    4.25254036770287    0.34691851004616
C         5.16414865994120    4.98572464637624    1.47203351609732
C         8.55203811245426    7.18224383965477    3.09397548187750
C         8.93321133745601    8.45734411975410    2.68361812438937
H         8.22050718839044    9.26869801675569    2.71612517606940
C        10.21483339905651    8.67708410491703    2.21796685529314
H        10.51065659312852    9.66147484677751    1.89250537363765
C        11.11972008717442    7.62689126761463    2.17447332164410
C        10.75206626263443    6.35527449025176    2.58928871694834
H        11.46560352792546    5.54726949123625    2.55707276729487
C         9.46628875849908    6.13211597529270    3.04122719227838
H         9.16866642807429    5.14793639205323    3.37444895256184
C         3.66675954180405    6.45344420525243    5.31271587180263
C         3.53780465446894    5.87693681633496    6.57529845321604
H         4.40454772858281    5.44282124442896    7.05426513915459
C         2.30821920879044    5.84990680885309    7.20160270973410
H         2.20250726477883    5.39408852725575    8.17300291336101
C         1.20876469864184    6.42437226541398    6.57895855967999
C         1.33166000317543    7.02576423838338    5.33508395004143
H         0.47641453339097    7.48912255749138    4.86980942761140
C         2.55630668989262    7.03152006773943    4.69745637908310
H         2.67120677782354    7.52230708199362    3.74180531701257

