79
CSD_code = TUCSEQ | q = 0 | S = 0 | Stoichiometry = C32H43ClN2Pd | MND = 7
Pd        7.82927700757181    8.18217155029829   14.06156554608140
Cl        9.08887215394979    7.40903627547120   12.34390877036008
N         9.31284282070269   10.11380627428853   15.67522485880464
N         9.79241995008922   10.44317860686948   13.58836479544292
C         9.07234417402375    9.69619795832755   14.42124314622727
C        10.36473027375890   11.12715045431741   15.73925654676274
H        11.28590859976099   10.68049176735495   16.13465857492586
H        10.07782373126650   11.95635684312406   16.38682771794987
C        10.49569120054561   11.52832219555706   14.27455398327006
H         9.98902843349899   12.47719745966964   14.05800316234087
H        11.52786311148500   11.60504593970004   13.93447761893652
C         9.88494272304601   10.38407915412546   12.17020101275416
C         8.83094969096813   10.85344739130947   11.38535757905015
C         8.98964276418303   10.86076437124310   10.00550197745685
H         8.18401385165986   11.20804082969128    9.37715091062969
C        10.16327177925105   10.42579829778699    9.42478362853667
H        10.27120497881587   10.43983021151949    8.35026761403969
C        11.19356927483268    9.95616437765416   10.21586587879629
H        12.09870171130407    9.59949146322132    9.74989104842604
C        11.07564112292332    9.92342309627640   11.59721333896111
C        12.20866053861748    9.37076657409422   12.43108958909090
H        11.90532448172866    9.36181232314002   13.48177077823878
C        13.46631014365078   10.23363405352966   12.28655281545124
H        13.26320010962876   11.27778636913878   12.52163384606754
H        13.84392111887220   10.18882367345542   11.26842336667882
H        14.24614970295206    9.87424679891176   12.95491645021252
C        12.50497034159253    7.92101716475437   12.04294661373972
H        12.89193279043215    7.85669910534484   11.02998372367068
H        11.58976652027408    7.33806697936608   12.10266334168614
H        13.24443910707735    7.49887253448313   12.72065202673560
C         7.51897379426867   11.29103336384955   11.99219451752267
H         7.59905588541555   11.27729884310496   13.08748036516190
C         6.44538787667162   10.27271805283019   11.60083391514438
H         6.76823232024946    9.27439550573442   11.93009114789581
H         6.30675378859916   10.24894966824856   10.52269035032013
H         5.49484356163645   10.51913249330829   12.06987971117626
C         7.13488455521957   12.70748182023283   11.56141551001453
H         6.95258756571110   12.75573287373620   10.49130892893984
H         7.92875579253995   13.41184932712094   11.80398535445113
H         6.22735493794545   13.01933933825493   12.07417438714184
C         8.95120890033659    9.38472755418210   16.84088184750529
C         8.06940872378779    9.96776173080554   17.75812147393420
C         7.73097322200851    9.24769384802048   18.89570361666216
H         7.05604264084586    9.67617568337570   19.62073648602110
C         8.24006523029876    7.98061050187735   19.10764738737779
H         7.95301445831587    7.42667234372437   19.98922948109803
C         9.12718891271789    7.42827011704270   18.20479585594066
H         9.53554223682029    6.44799219187164   18.39768813184846
C         9.51262003655913    8.11928365234190   17.06151752087111
C        10.58322123552690    7.53728922381358   16.16212522718051
H        10.74214878190763    8.19467006717242   15.29976756886699
C        10.18377872401441    6.17140840223773   15.59996010625527
H         9.29824221394546    6.28005898194261   14.95855333041172
H         9.96822189328357    5.45832946415545   16.39203683772348
H        10.99170829222215    5.77807871636345   14.98729670545318
C        11.90197747841346    7.44260731448563   16.93737415550035
H        11.82269809708693    6.72723524030049   17.75205352251772
H        12.17491740396689    8.40841832306390   17.36022395360844
H        12.69932621550947    7.11776983671291   16.27297345266516
C         7.51421384611118   11.35833614203279   17.54174237696508
H         7.79273750625439   11.69299446895640   16.53782896923484
C         5.98698025284183   11.40149348204191   17.61990653371008
H         5.62743693082377   11.06731811495231   18.58947432042930
H         5.54676619996830   10.77165050364623   16.85150150735404
H         5.64150002941847   12.42138110215710   17.46316777183142
C         8.11973004682924   12.31705588975261   18.57276971132773
H         9.20727836928845   12.27213253392500   18.55836237475179
H         7.78673954173182   12.05541472158158   19.57411117720542
H         7.81098601162816   13.33946676920720   18.36550569555768
C         5.50905705421874    7.51637531508658   13.54075138008837
H         5.01457189937909    7.46518634998772   12.58199008410772
C         6.32622216163551    6.47461987096225   14.10291127900643
H         6.45624440839916    5.49815844362872   13.65207944603068
C         6.59157258048562    6.79639266462021   15.44634836260242
H         7.05238191913491    6.16186697575016   16.19040216407758
C         6.18893381264568    8.13292007114717   15.62818702640684
H         6.16102977022499    8.63857477353961   16.58091813313703
C         5.43006225289107    8.53693568822226   14.46855669906527
H         4.85090642176575    9.44522154487392   14.39389387658668

