77
CSD_code = TUCSAM | q = 0 | S = 0 | Stoichiometry = C32H41ClN2Pd | MND = 7
Pd        8.91979514104548    6.74229862426337    2.40891828777251
Cl       10.99554559203707    5.84609469698959    2.54195276246943
N         8.80892758304435    8.83382592112968    4.52913065667141
N        10.52541196883083    9.12243571968874    3.26374449525045
C         9.46966278627719    8.31163782225754    3.47321322729783
C         9.45059682983170    9.96022857342866    4.98105224189405
H         9.10144786435921   10.51698810785095    5.82505212963828
C        10.52754350648448   10.14037343828495    4.18571050780292
H        11.28318293531028   10.89844689030134    4.19178482149320
C        11.58262258304024    8.92284725466256    2.32783654802078
C        12.85102428598453    8.60607550267149    2.82225582752236
C        13.88915968779424    8.46444909897221    1.91117177072545
H        14.87629638752425    8.21295268661312    2.26516032815351
C        13.67396097726318    8.62899622289768    0.55892789836449
H        14.49245214933102    8.51365389900926   -0.13606406851118
C        12.41073411404929    8.93202896285457    0.08760990580207
H        12.26360708402055    9.05049960729214   -0.97300276832333
C        11.34003021100049    9.07985963763478    0.95779340337162
C         9.96055437972362    9.45163693561781    0.45308977051318
H         9.21144967101380    8.89369542951958    1.04750995030931
C         9.72570273507101   10.95273912296818    0.65485430562025
H         9.80409049865922   11.22846745316611    1.70445735178272
H         8.73476330568452   11.22925668682705    0.30064144912179
H        10.46398424810316   11.52464435173517    0.09547416981152
C         9.73116475340917    9.07567321543739   -1.01018355993772
H        10.31090006132562    9.70631147257062   -1.68075306911364
H         8.67943129093062    9.20700081654752   -1.25916395816010
H        10.00209294955776    8.03484890127952   -1.17656925104974
C        13.12361212019349    8.38688494290300    4.29252631489325
H        12.19021660141593    8.47388756133319    4.85531251174314
C        13.65877760417979    6.97308227471524    4.52866103592462
H        14.64322310146849    6.84578041352433    4.08744745448491
H        12.98047045153717    6.25133822246440    4.08035941569692
H        13.73316021220592    6.77853544035631    5.59653495620700
C        14.10062003455792    9.43854656092782    4.82597689772092
H        14.25532196978903    9.29534357680308    5.89312251627255
H        13.71869985503302   10.44528241506889    4.66573763553915
H        15.06299590262238    9.35869532295850    4.32740932318497
C         7.66278625989407    8.24779005059217    5.13470187445709
C         6.42506496149111    8.89161559836122    5.03017914728948
C         5.32987963303408    8.30864243804570    5.65312888826799
H         4.36456079765884    8.78580990402936    5.59303631986842
C         5.45702905557904    7.11826716049853    6.34350715317679
H         4.59128945081105    6.67355268149915    6.81164055525193
C         6.68752769703854    6.49937904367174    6.43911992494133
H         6.77380941435796    5.57415054186690    6.98678407806819
C         7.81674904335076    7.05247989666074    5.84661785584722
C         9.15857537510774    6.38032766508548    6.02714551910211
H         9.93569655490737    6.95256785061113    5.50882926134976
C         9.14441319131828    4.98342754200895    5.40390409794019
H         8.39631477640356    4.34649830488091    5.86960967504909
H        10.12193404999681    4.52062206957360    5.51420530588734
H         8.92727206949128    5.06701454718293    4.32926049236833
C         9.52922499289730    6.32244348232556    7.51158069771810
H         9.52010982896985    7.31910794765082    7.94933273660832
H        10.52670643668708    5.90494022569111    7.62398302539064
H         8.83307606668763    5.69861878330074    8.06618675960391
C         6.26561845717793   10.19564085116264    4.28193332020732
H         7.15621148059494   10.36080649560227    3.66634995084278
C         6.13244080233705   11.35563938472889    5.27390042553522
H         5.25075240035529   11.21962300806112    5.89593031148233
H         6.03541729416673   12.29706633252695    4.73794625152423
H         6.99922738711750   11.41980034677344    5.92698503032054
C         5.05129963847975   10.17589881941951    3.35017500863404
H         5.03516802330247    9.26593998351733    2.75680753263786
H         5.08868441296249   11.02955553584406    2.67696272106577
H         4.12270902561182   10.23276980421033    3.91153763619488
C         6.51799096699282    6.12407837696771    2.66478584892646
H         5.83600831441925    6.30261484021967    3.48139214649579
C         6.86726635003967    7.09425413722645    1.64893255660712
H         6.38132475468690    8.05413938239240    1.53268287370325
C         7.58375743147660    6.42288324401591    0.63421407431023
H         7.86574364829669    6.82059593484498   -0.33226572367876
C         7.90772824872152    5.15225681333879    1.14498345306526
H         8.39870380842383    4.36238883891445    0.58934153314810
C         7.13934998463122    4.93669325385332    2.34272863951992
H         7.05164448082796    3.99535509932454    2.86292984531209

