39
CSD_code = TUCSOZ | q = 0 | S = 0 | Stoichiometry = C12H23BrNiP2 | MND = 4
Ni        1.00101602062105    1.67278031800921    8.05690866887005
Br        1.29711153036521    3.90167074536924    7.85236070212846
P         3.08340260057961    1.30669765339423    7.59165085335321
P        -1.08693457501575    1.95128660569393    8.55734136288302
C         0.73723850090257   -0.18400613201563    8.16095211320262
C         0.36407950227200   -0.88829647699280    7.01930662133745
H         0.22717250698901   -0.37032067449975    6.07460448949406
C         0.90453478280954   -0.88036360697727    9.35429882234524
H         1.19544511821491   -0.35653314636976   10.25946775614789
C         0.70207797357701   -2.25021825648999    9.40319670986668
H         0.83565194580029   -2.77768804109244   10.33805323058689
C         0.16237918423492   -2.25799841440354    7.07182753808696
H        -0.12759482377288   -2.79103013785306    6.17636102220525
C         0.33068131501354   -2.94163436516644    8.26339274026527
H         0.17282068645056   -4.00986927104366    8.30332514340162
C         4.26590880315731    2.14601661861474    8.71112782501605
H         4.06925887742142    3.21714953208923    8.70937241369328
H         5.28545547154333    1.95588326671769    8.37733160900159
H         4.13928051265093    1.76623257120699    9.72431076878182
C        -1.39684544095822    3.05868834561747    9.98355273479667
H        -0.95867029999951    2.62564179491810   10.88195633636516
H        -2.46991045811963    3.18130850784602   10.12651365666312
H        -0.93446270342570    4.02705948311240    9.79863132149467
C         3.60717416225096    1.94977158133916    5.95859993201742
H         3.39030884422728    3.01556920895160    5.90221677360012
H         3.05632423131655    1.43537229363127    5.17206344233061
H         4.67505439564370    1.78153759312191    5.82324645596926
C         3.80279273353896   -0.38093202447202    7.54031379464521
H         3.27911081977887   -0.98215226958414    6.79926619762378
H         3.68690181568304   -0.85971180438067    8.51095089243102
H         4.86035445741631   -0.32821721745143    7.28503173978657
C        -2.19967557075068    0.55096775389024    8.96871240246052
H        -1.82075007001788    0.02622764850819    9.84389555182014
H        -2.23138514509940   -0.15130695715499    8.13770327068694
H        -3.20405410233712    0.91953877330746    9.17290503519364
C        -2.05124355617353    2.77788464495663    7.23770479229884
H        -2.05671843574174    2.15221136213414    6.34604345660878
H        -1.58840061362728    3.73354671605066    6.99563126191499
H        -3.07469099744302    2.93763577752882    7.57517056061081

