79
CSD_code = TUCSUF | q = 0 | S = 0 | Stoichiometry = C17H50N5Si6Y | MND = 4
Y         3.06008522415087    3.63052263519998    8.22825931536469
Si        5.58290609738234    2.21527480525863    9.76650420244237
Si        5.30569005636353    1.62256246750722    6.78396157245753
Si        4.01058751122746    6.25789683177192   10.17195222055880
Si        1.23462852478339    5.14435235630463   10.60153292386716
Si        1.06808458509045    1.02297605355341    9.02963820083776
Si        0.55834418678479    2.37763418419999    6.36073602691229
N         2.71204372140505    6.48178898063078    6.39463190171959
N         4.79315385236784    5.98822469909051    6.38777450381130
N         5.00660452014443    2.58599578638568    8.18263882526635
N         2.67342238759382    5.29736934527045    9.66919213224725
N         1.48284481413789    2.14305976148631    7.78598443601510
C         3.57364021656514    5.47073633605817    6.65395205387688
C         1.29145560141903    6.41593712633943    6.62138236713667
C         3.37593072444283    7.59673539110060    5.97129767242956
C         4.69431377692785    7.28260370125507    5.96246492018767
C         6.04951246110496    5.29933753121675    6.53268383130440
C         7.34749723344939    2.90763457144117   10.02798236900289
C         5.60918947621315    0.36060519000779   10.22487341540323
C         4.17849333831673    0.09916308475170    6.60465071487896
C         7.12341973717522    1.05654745520567    6.62843389799963
C         3.72495753556611    8.11453713770637    9.78949094166187
C         4.50131466185809    6.13602552540700   12.01035527468138
C         1.39241860022903    3.82005763012845   11.96729726442200
C         0.62865946449505    6.75203179724474   11.43574571686080
C         0.95128700322056   -0.81205290017494    8.50844980938390
C        -0.60241307170271    1.40223321825084    9.87796370520629
C        -1.01876358875450    3.43316717927746    6.64380875707702
C        -0.00791496199464    0.81473475808009    5.42850161015146
H         0.82510305812164    7.32681725215493    6.24753186479287
H         1.09669402242111    6.32080491104580    7.69522644016806
H         0.86593527889166    5.55184272421993    6.10696809768475
H         2.87663370357948    8.50824271577158    5.71303305412396
H         5.54754480596160    7.87184704468105    5.69639134646624
H         6.40887784225933    4.95405690682063    5.56078881547346
H         6.78600258486991    5.97825060270596    6.96254775316744
H         5.91992376894625    4.43295757743969    7.18984844348647
H         4.67942778473768    2.90284463281185   10.76329168467613
H         5.03602061887619    2.51238340104945    5.59929649696682
H         5.21482487309849    5.84887809776553    9.37549570339404
H         0.14750136416393    4.77085025286789    9.63440705905603
H         2.17660393047959    1.10641958286134   10.04425532159797
H         1.46083431632493    3.15025575676201    5.41532149344981
H         7.70873894895617    2.68935729620556   11.02739037246917
H         7.36146319790852    3.98542184542323    9.90089380778545
H         8.05166135707467    2.48095254270694    9.32170157505541
H         5.89853159596992    0.20831168630183   11.25999483372386
H         6.30881642660497   -0.18990541890103    9.60467433359803
H         4.62690250527565   -0.08097824405358   10.08625088045082
H         4.29457686190981   -0.37928616617999    5.63723056346273
H         4.38271120467645   -0.64550987186122    7.36793524029801
H         3.14280917905388    0.41121158943167    6.70683579941264
H         7.29516615585020    0.55576762747984    5.68158001081494
H         7.39392517668945    0.36548424841208    7.41897058191036
H         7.80408430191600    1.89920668904233    6.68438869911594
H         4.60744853322365    8.70060768037016   10.02399629804032
H         2.90285297924600    8.51303396179691   10.37311194433203
H         3.49165210421143    8.27774725439229    8.74176200517878
H         5.38556205558186    6.72720342578451   12.22597677128481
H         3.70585804399756    6.48662660224799   12.65969577278132
H         4.71883134412908    5.10727974745337   12.27832908045388
H         0.42397623688036    3.51155278059431   12.34756282389830
H         1.97442257463151    4.18472959365626   12.80895254498441
H         1.89150687984555    2.93697412410764   11.57420901877090
H        -0.31518484632916    6.59355485709238   11.94719557982683
H         1.34247795809164    7.11241580323026   12.16803286149464
H         0.47871026611961    7.54338232919907   10.70884444998886
H         0.81100857541906   -1.44596380943182    9.37902542542086
H         1.84994328239784   -1.14541931342259    8.00202755714284
H         0.11545274665611   -0.98748120973277    7.83995251444457
H        -0.71873885827305    0.82966471224406   10.79271588059806
H        -0.68370301180741    2.45372629704133   10.13127308456403
H        -1.43591725415141    1.15271444230396    9.22830826181032
H        -1.35214109012199    3.92272123003374    5.73348071603912
H        -0.84702875732244    4.19874983223276    7.39557296727246
H        -1.83871675646329    2.81524666690956    6.99521879826284
H        -0.38783100691142    1.06538949541543    4.44292824749732
H        -0.79913191739849    0.29744168026373    5.96144148487976
H         0.81288136474052    0.11802389421463    5.29839505424870

