94
CSD_code = TUCTAM | q = 0 | S = 0 | Stoichiometry = C22H58N7Si6Y | MND = 5
Y         3.23906497447039    0.08715052074253   12.54304429413049
Si        5.88082424376919    2.39837215820493   12.54906989410445
Si        3.21254256855882    3.57889372069378   11.81476229896129
Si        5.80096019496149   -1.11195535873278   10.38081611454880
Si        4.08633489764654   -3.22002000055135   11.56180215941692
Si        0.94748641830319   -0.90907418681806   15.21064399206178
Si       -0.13464680939588    0.98741879572629   13.18322100197669
N         2.37436733656495    0.15557429547458    9.18223601321579
N         1.15344660858593   -1.29188748881883   10.17189213639240
N         4.22376829968780    1.01447747050172   15.63992812201901
N         5.49907141842358   -0.62869452911832   15.14927283608913
N         4.19240551694290    2.23878180572913   12.25921942756513
N         4.60255637761102   -1.59131048576483   11.52137274213389
N         1.14993666789726   -0.00752461444812   13.75910396702095
C         2.03790101079233   -0.29816318218071   10.40880767041074
C         3.25834229843942    1.25407683667219    8.90348815465723
C         1.72290009329679   -0.54215932543968    8.20276619260920
C         0.95083701298573   -1.45985132345038    8.83037721530189
C         0.47322171605227   -2.07585572919280   11.16742190437761
C         4.44051079321535    0.07409901975164   14.69566337522797
C         3.23006178208479    2.05114094104113   15.56007057336055
C         5.12430429805351    0.90014485814098   16.66001094082814
C         5.93147184760660   -0.14317265970753   16.35170963448387
C         6.11518603857301   -1.73926644373243   14.47439708921504
C         6.38048505345395    3.46993863710659   14.06335374271490
C         6.90718310212873    3.12843415108064   11.11366666293273
C         2.93755566100619    4.93951087327838   13.13854729915502
C         3.82397848623318    4.59756004095368   10.30734964786261
C         5.54435571568151   -1.89722843985380    8.65437767238269
C         7.58404944902420   -1.54369130344022   10.91561772737682
C         3.09220251325871   -3.46506850015744   13.17172779063151
C         5.45137849253451   -4.55655352199039   11.55872636222787
C        -0.09940762996275   -2.49962285519263   15.02237377252888
C         0.15215214819331    0.01590735833496   16.68417126727739
C        -0.25495405089337    2.69156994244103   14.03642377482981
C        -1.89055242379981    0.23884987977022   13.32861075820272
H         4.02891806834177    0.94068670232482    8.19783474498558
H         3.72896139363065    1.58233172482823    9.83132076503976
H         2.69612718427491    2.08724661829636    8.47540492791731
H         1.85499340447529   -0.33404101120165    7.16075855277606
H         0.28711230944449   -2.20115193604846    8.43498702184043
H         0.85800326773179   -3.09680832404774   11.17181512033616
H         0.62442972599479   -1.62395303813586   12.15010878680343
H        -0.59492991871150   -2.09731604446184   10.94568198897858
H         3.61489478147674    2.88808347031473   14.97213867475085
H         2.98314596059371    2.39371709453829   16.56535840879272
H         2.33276955582127    1.66327404685372   15.07083327601860
H         5.12409940275572    1.55124036185639   17.51035833801872
H         6.75982979504235   -0.56572643985096   16.88239290999610
H         7.19677207593520   -1.60020524957845   14.44761480056179
H         5.89367168291116   -2.67127879562835   14.99904958527671
H         5.73104308174625   -1.79563601448977   13.45122879000215
H         6.44154335396366    1.03972677867656   12.82989330327514
H         7.45910905686669    3.58612866487474   14.10701810651300
H         6.06716165911745    3.03199254628801   15.00602282242292
H         5.95241877543738    4.46523593504699   14.00451734572600
H         7.96947600510100    2.99753775714171   11.29429946081407
H         6.72455759391487    4.19001607740392   10.98788828437973
H         6.67418528587740    2.63884860899122   10.17424125276623
H         1.87554709816456    3.02219324298713   11.44858002720234
H         2.33704770812092    5.74577579067217   12.72764757188752
H         3.87753810599977    5.37332472317306   13.46737742290853
H         2.42106829627539    4.57122750472465   14.01951959325792
H         2.99583446821407    5.09097925720130    9.80657748348040
H         4.51668256141341    5.37289879471037   10.61903174021213
H         4.33518724279080    3.98359495276021    9.57371096117403
H         5.75243468172493    0.35788360853590   10.19240091468980
H         6.15380172866270   -1.41700921492802    7.89530183012650
H         5.80750571082696   -2.94899981114635    8.66755991172874
H         4.50646246211318   -1.83254728582820    8.34273584969072
H         8.28621218635226   -1.34515880286219   10.11243222158411
H         7.88446243154532   -0.94119058466569   11.76636466260878
H         7.68545326322374   -2.58771061413302   11.19207743233301
H         3.19783565088745   -3.61640484887295   10.41936553268946
H         2.31099065608616   -4.20673607444109   13.04395449725197
H         2.62713786420641   -2.52900143246042   13.48174540442455
H         3.72013402793393   -3.81123368614984   13.98574274970320
H         5.03024330764812   -5.55148961737821   11.66317586904903
H         6.15995215524104   -4.41418591875931   12.36915592309067
H         6.00926576704499   -4.53326954711072   10.62960416691834
H         2.30030427206437   -1.33487584296382   15.69755593737540
H        -0.14228801387445   -3.04343436729449   15.96074792539644
H        -1.11881688328000   -2.26962748984239   14.73203670949997
H         0.31082887113307   -3.17055966393165   14.27540833727075
H         0.13702539451967   -0.60593577897919   17.57398533732827
H         0.68586896132892    0.92769624772975   16.93197833608328
H        -0.87361782824025    0.29056278907972   16.46256577292048
H         0.06430674801508    1.21426270744300   11.71753052746445
H        -1.10634150460165    3.25143148877992   13.66308081984648
H        -0.37112357361178    2.59794655403348   15.11172746861949
H         0.63375939634173    3.28131949062070   13.84414261884229
H        -2.62483202933863    0.87137916264266   12.83932150097428
H        -2.19084853791424    0.13682951609561   14.36588058507951
H        -1.95119827089855   -0.74478614080894   12.87446486111861

