66
CSD_code = TUCTUG | q = 0 | S = 0 | Stoichiometry = C18H40BO2P4Rh | MND = 5
Rh        4.34792695826897    4.33605878212719    1.10044626854314
B         3.15860124891427    3.20083129797402   -0.10710668441268
O         2.49889056807200    3.58927478981780   -1.28685993634339
O         2.80859011796967    1.85315454043019    0.14823918213658
C         1.78590121526463    2.52897012042597   -1.72570370732971
C         1.97763933251833    1.45862263985991   -0.84050283409631
C         1.36404051264609    0.23997616661404   -1.04384519590341
H         1.51302491652187   -0.58286231626261   -0.36187118113601
C         0.54913106099159    0.12083641449721   -2.16216771010197
H         0.05281887168255   -0.81928275336299   -2.35240882560881
C         0.35956671923495    1.17940846234871   -3.03711460190762
H        -0.28179011608562    1.04827836139266   -3.89604939666989
C         0.97606091507199    2.40759586843185   -2.83548896738906
H         0.83027482368811    3.23294856261588   -3.51488238767447
P         4.30611395464631    5.94657849001328   -0.64085628315505
C         5.32135682491948    7.49433241280694   -0.61136614493279
H         6.37552120775566    7.22598626878591   -0.63545036861978
H         5.12112885096987    8.05307363260579    0.29982334575102
H         5.09130790156746    8.11998346658265   -1.47322594936231
C         2.68388400295473    6.73553558130476   -1.02178481828534
H         1.96515967060074    5.95142674826089   -1.24095724201126
H         2.76439714123980    7.41459224970592   -1.87028722977897
H         2.34876434549101    7.28437710822930   -0.14264975752553
C         4.78413427061202    5.42972718282807   -2.34572466591215
H         4.17340859015248    4.58401812799987   -2.64544786817094
H         5.82909393099552    5.12281010863843   -2.33432145300122
H         4.65289424039833    6.24922914556617   -3.05196059523704
P         5.84518507016935    2.53979246183132    0.82122555396533
C         5.96410455914809    1.77899468313723   -0.85699552685026
H         6.29465369723731    2.53749204372312   -1.56476509334074
H         4.98391351434377    1.42543976320525   -1.16473620052941
H         6.66674956409771    0.94560312071165   -0.85970394439118
C         7.67138853995769    2.61616440503594    1.13046048612841
H         7.86891626566031    2.94175421042442    2.14903142839570
H         8.11671565513570    3.33016702695756    0.43964425509031
H         8.12525494518141    1.63819433817718    0.97386328380151
C         5.49795327243956    1.00482524180088    1.78254298465084
H         4.47952606848506    0.69694094922725    1.56282993273136
H         5.57335081362356    1.22643668623590    2.84575459666542
H         6.19357962120292    0.20756260079398    1.52181888653526
P         2.49323261420309    4.08722646537947    2.49246239451518
C         2.28515987201893    2.44863428558704    3.31480862160346
H         3.12032999180851    2.28367564736990    3.99360370454710
H         2.30746105128670    1.68022904063357    2.54670437895922
H         1.34667259209048    2.39724627668474    3.86640080726503
C         0.81740979773564    4.20684799216874    1.72411207592069
H         0.71472495855895    5.18491941431193    1.25654323955524
H         0.03334001307811    4.07353753743872    2.46979184353471
H         0.71158635227050    3.44647609306811    0.95428540361877
C         2.11115317059847    5.14628118390223    3.96475598772571
H         1.97756938142426    6.17507029113462    3.63541642603462
H         2.93037127953518    5.10522988041295    4.67894583163912
H         1.19847219341512    4.80426829283881    4.45169561154686
P         5.64093644577396    5.51987262431123    2.59293186059747
C         6.05610749169079    4.63688080614079    4.15898359759380
H         6.65560491189319    3.75963907231489    3.92377804091486
H         5.13464548585530    4.29801798375510    4.62880622674113
H         6.60332010474705    5.28262803028427    4.84552744640829
C         5.05492436539573    7.10614164179839    3.33458394292080
H         4.76450065026246    7.78872508232047    2.53868654589816
H         5.84395119937326    7.56124374264844    3.93295002559735
H         4.18669716799549    6.92305546792720    3.96017733239094
C         7.33558298162780    6.10432525628284    2.15120643877942
H         7.24893420503421    6.95532812211349    1.47994240475387
H         7.88095423906548    5.31645115056844    1.64060406379592
H         7.88022381951413    6.40629962711245    3.04565011242097

