95
CSD_code = TUCVIY | q = 1 | S = 0 | Stoichiometry = C43H48P3Pt(1+) | MND = 4
Pt        9.55021530068380    2.33732080646698   14.31422087342231
P        10.33093483245836    2.99368021235130   12.19397042205563
P         9.01179236079969    4.55316863957070   14.59255089459744
P        10.05310905087907    0.08662520417671   14.41791600914690
C         9.85284972779483    4.73949575431730   11.94840807354983
C        10.01355397756424    5.39087184879266   10.72864175686165
H        10.37917196246314    4.84826627051241    9.86959984350269
C         9.69812876006518    6.73086892123077   10.59955393493533
H         9.82609613101146    7.22451015626625    9.64840457381010
C         9.22739209424405    7.44160052927207   11.69265491915825
H         8.99838800500463    8.49184261663111   11.59730150157282
C         9.03938354853262    6.80059840766207   12.90300218550078
H         8.66649511192409    7.35941033190958   13.74885613664160
C         9.33359026210371    5.44674508358731   13.03804789488292
C         7.30621669756228    5.01670802868214   15.17319128033947
H         6.96185367380251    4.12514072385081   15.71472632468443
C         6.30701732319252    5.31685268057959   14.06459174040739
H         5.31810312434742    5.46900794707292   14.49190427718053
H         6.25288922881217    4.48232084380922   13.36659658549893
H         6.57761612705543    6.21007589946641   13.50654527632117
C         7.50867029273997    6.13560065713704   16.20038714031018
H         7.59648744458224    7.10494095122401   15.70609870212359
H         6.65681379003035    6.18636827867505   16.87886741147208
C         8.79655509039734    5.80865221493843   16.94867050172956
H         8.65245426545320    4.90216163908647   17.54182343206954
H         9.08961472476446    6.61560347006376   17.62043304532289
C         9.87518003410515    5.56012584428333   15.89064776587742
H        10.16139778381698    6.51306288643498   15.42794704309683
C        11.12072148180476    4.86214871356398   16.41755308092950
H        11.59696396610732    5.46337046206734   17.18939270512808
H        11.83839754528804    4.70860143054061   15.61174450488516
H        10.85636315164285    3.89733540518851   16.84620765729238
C        12.00979445137297    2.79030617594996   11.40684811069438
H        12.47164462268938    1.97680461840721   11.98242406745269
C        12.92118683779127    4.00557212998675   11.50861616113223
H        13.90547868637711    3.76354592912345   11.11257967392490
H        13.03690218964381    4.30876682769892   12.54856418566982
H        12.52814214313043    4.85111815762560   10.94941415417701
C        11.75089905619065    2.28744830027496    9.98171128976975
H        11.57142908394795    3.12893027497309    9.31064931198042
H        12.62044889239907    1.74808890826482    9.60388229138969
C        10.52117355938711    1.38418906056050   10.03021595176629
H        10.77054710612943    0.45265504437235   10.54362842584910
H        10.17300599990288    1.13346056711097    9.02779822086265
C         9.43460766057753    2.12385601563166   10.81668277455761
H         8.97560670988780    2.89334775370487   10.18368189612157
C         8.33968447709687    1.22177734122178   11.37552626386011
H         7.72299574168606    0.81545405915992   10.57628487894224
H         7.69513254979311    1.78944510300173   12.05226162624464
H         8.77570627791857    0.38488054516732   11.92468957816535
C         8.46860978560604    1.87058590018071   15.98021893259704
C         8.93296375560873    1.73479309434180   17.28153003481747
H         9.98353611149139    1.85979568269293   17.51034603741099
C         8.06077722761687    1.42513220216013   18.31534911463644
H         8.44192884084599    1.32690774295760   19.32120463435919
C         6.71348922535729    1.23997661533696   18.06323294295601
H         6.03799079056541    0.99798667851589   18.86939333828110
C         6.23637027899539    1.36498870460678   16.76935608391253
H         5.18624411743167    1.21997400407095   16.56124952010105
C         7.10863347001721    1.67909669920129   15.74006999585309
H         6.71741860887683    1.77643507434024   14.72934155816714
C         8.68058353648972   -1.09513318818339   14.85736537456536
H         8.66209275179874   -1.25772970837452   15.93859434440232
H         7.72228970027337   -0.63866819959706   14.58787288010932
C         8.91899510576718   -2.35357614720494   14.06726691769134
C         8.24179045323856   -3.54884018646849   14.07171640823585
H         7.39516765671409   -3.68867971304609   14.72800162563001
C         8.62747777148658   -4.62740275259297   13.23713837475882
H         8.05960472907511   -5.54402750845419   13.28751917707895
C         9.70314107367600   -4.50155384171945   12.39583939413004
C        10.40245811877594   -5.40043393460230   11.41355507669709
H         9.72405440492368   -5.70775597177990   10.61631462029349
H        10.75960189503907   -6.30726589004394   11.90349443458008
C        11.58831056039709   -4.55886218085702   10.85284568291911
H        12.54619231112640   -5.03996320187414   11.05580388739367
H        11.51012323879450   -4.43645780806781    9.77133028776599
C        11.50089383176511   -3.22994295055401   11.54807583174727
C        12.24855407749476   -2.07762614064078   11.53818873659040
H        13.12850265874467   -1.98511579018366   10.91898261267217
C        11.88444409113458   -0.98579528520007   12.36028214293532
H        12.51640595389044   -0.10929894965324   12.35060525889867
C        10.77650531437203   -1.03400521054059   13.17638257981015
C        10.01632145988952   -2.22083115086186   13.20456831158018
C        10.38967229815368   -3.28018847278899   12.39839669448305
C        11.30983647546494   -0.03517622344075   15.72036016969256
C        12.06280885257497    1.11177119481784   15.95594615386973
H        11.83658238750192    2.01506643512215   15.38356143945457
C        13.06941795316691    1.10000778569259   16.90255579567487
H        13.64955280125520    1.99102820344322   17.09134457102317
C        13.32799776458153   -0.06246461747740   17.61262442662735
H        14.10977575375929   -0.07499301024442   18.35648311697450
C        12.58851668817076   -1.20945565224307   17.36972842597872
H        12.79887948993543   -2.11256015931530   17.92227508594223
C        11.58222449751118   -1.20361319733113   16.41984628578134
H        11.01225921495392   -2.10075864698724   16.22302532420719

