95
CSD_code = TUCWIZ | q = 1 | S = 0 | Stoichiometry = C43H48P3Pt(1+) | MND = 4
Pt        6.75746187237456    7.69046528269482    4.48236358016748
P         4.55039206104298    8.05365035684495    4.90486245202265
P         6.93884249130783    8.03890760096302    2.16228185224933
P         8.82226964362983    6.67601199126687    4.25684574695421
C         9.46127815581063    6.95332770312885    2.56910689474398
C        10.71630386941239    6.51132565770852    2.16182206629531
H        11.33501249788424    5.94001720914684    2.83618355963427
C        11.17859941639536    6.78394478555607    0.88725647798663
H        12.15420558572339    6.43666918854322    0.58360162691440
C        10.39325169800834    7.50791862500868    0.00441477663489
H        10.76122924777692    7.73963688698203   -0.98329665150404
C         9.12829297018124    7.91758997678185    0.38372699224760
H         8.51730561089337    8.46922475925194   -0.31523505391004
C         8.64407200564599    7.63214791933115    1.65673272506998
C         5.83143576676853    7.45795736079234    0.77789409074970
H         4.87461921218682    7.24482322212159    1.27466497315397
C         6.29568909091685    6.19201080701531    0.07182693542883
H         7.23439323767872    6.34918553560219   -0.45453627032487
H         5.54707066152779    5.87798271740680   -0.65272563970270
H         6.43810135194480    5.38344294659510    0.78791318991941
C         5.62415198017012    8.67114614740410   -0.13504927063947
H         6.44701849941158    8.76046423241621   -0.84572661019549
H         4.70357337061768    8.55940658157057   -0.70934858160076
C         5.56559475078319    9.90280859025168    0.76295482538193
H         4.63680736418130    9.88447822974511    1.33839043193894
H         5.58523314654580   10.82381743954896    0.17991036395880
C         6.76002693296534    9.83511727739106    1.72003239399413
H         7.67465850217169   10.14607233828507    1.20075903183337
C         6.59331007031061   10.66899572314473    2.98542213935347
H         5.65085343852598   10.42108562284323    3.47789582313741
H         6.58912324732638   11.73287811960747    2.75694438521029
H         7.41624848492962   10.46902809203582    3.67797559195646
C         8.61699038771860    4.82708531220892    4.31704253316903
H         9.03777226366909    4.41370310927875    3.39213998194935
C         7.14100605373428    4.46179806012898    4.42094750634642
H         6.74137572809966    4.82589999492761    5.36870560120450
H         7.00198009219628    3.38294181210881    4.38097663054502
H         6.58273027846204    4.91247268801659    3.59458856297031
C         9.45143690912515    4.36824705151695    5.51721022512404
H         9.69159615291088    3.30769851992425    5.44122061955507
H         8.88055997758736    4.52443262313359    6.43564945774583
C        10.70929121975960    5.22944309056651    5.55480691881160
H        11.36445578444603    4.97375182858216    4.72078466434590
H        11.27073868543900    5.07074043238264    6.47615874410247
C        10.23440365935480    6.68310815770122    5.46540798711810
H         9.74142011854796    6.92000717356407    6.41942104816945
C        11.31551676230767    7.72622946273640    5.21933351006717
H        11.86574631957249    7.53771659674606    4.30145783426648
H        12.02321839312818    7.72324649776412    6.04598614981332
H        10.87653459246836    8.72065078266871    5.15122214805310
C         6.84020699330445    7.72467655446617    6.52285340829291
C         7.91232886994033    8.44422718347472    7.01466200493005
H         8.58552444567975    8.93459355156103    6.31366789197292
C         8.19593958726903    8.59928420311125    8.38523614248575
H         9.05463934074208    9.17779207160186    8.69225343180466
C         7.37148068000272    7.99157547762286    9.28834180823142
C         7.38895101875606    7.93400992464268   10.78796993074742
H         7.36877184348538    8.93908297503135   11.21230503208804
H         8.29737023379070    7.44775636243331   11.14786220039537
C         6.12263226184746    7.13065708080051   11.17163381631081
H         6.37646729822969    6.21805200151468   11.71371902324948
H         5.45582575112856    7.71222653456716   11.80981610517356
C         5.45902341823313    6.80309382550738    9.86606854185784
C         6.24488086782388    7.30092755623054    8.81230602639540
C         5.91620732351615    7.17133927517684    7.45049020600290
C         4.66069242946988    6.55663125739150    7.18221230183563
C         3.89687432730101    6.08238289142047    8.22350868786263
H         2.94171248664811    5.62669882475372    8.00129968443913
C         4.28394217454081    6.17302172291399    9.57169375942471
H         3.63981334382611    5.77523405079867   10.34049787545698
C         4.10885288987508    6.49856413280471    5.78418569348412
H         3.02302459295722    6.36927129270707    5.80871238431567
H         4.54047960826591    5.66265597242373    5.21959403919703
C         3.33202646472224    8.15316683703182    3.56290663796686
C         2.99056140839316    7.01187629262351    2.84103544591934
H         3.42410213530538    6.05699769986079    3.10622557184526
C         2.09126737777018    7.09608717422430    1.79289630913496
H         1.82173409471393    6.20657256930987    1.24339955382263
C         1.53847706483736    8.31929389446938    1.44821264653274
H         0.83704017492884    8.38299575994503    0.63082642704983
C         1.88406657494205    9.45990850558631    2.15528111440188
H         1.45414472889146   10.41327401032416    1.88793639143369
C         2.77990412512873    9.38047539978089    3.20666043427972
H         3.04352463339545   10.26901109554394    3.76482971685277
C         4.03514296001334    9.34435769880972    6.06461773379606
C         2.74077368554869    9.33963149861283    6.57578356708561
H         2.03019849467423    8.59606951958121    6.24196956582858
C         2.36768978896381   10.29098558198690    7.50574231887128
H         1.36587628110109   10.28577959847009    7.90760044365707
C         3.27865272241267   11.24890610762135    7.92438157092805
H         2.98394499294460   11.98678809262512    8.65472370212538
C         4.56304155279004   11.26275524251378    7.40642524992516
H         5.26984724597659   12.01177325129897    7.72951392068020
C         4.94254783445018   10.31219338730435    6.47621826543068
H         5.94679425917803   10.30573393891480    6.07209844476474

