107
CSD_code = TUDDOM | q = 0 | S = 0 | Stoichiometry = C36H67ClP2Pt | MND = 4
Pt        1.69845370227085    4.01495597227549    6.78715282919883
Cl        0.04671778942418    2.46835768645824    6.17552254429524
H         2.75434798936521    5.04187560932467    7.17498931234645
P         2.49005878673996    4.04511372457529    4.63498821165082
C         4.34798240092039    4.07029538607530    4.60163441905563
H         4.57615004299140    5.04192056159228    5.06065336077765
C         5.04682419734067    4.00339879302179    3.24892894446221
H         4.90618212579449    3.01783205300443    2.80216239699914
H         4.63625356350057    4.75164996075223    2.56672956993897
C         6.54375325403402    4.24375008929062    3.44600648017828
H         7.05853838569977    4.18456460605336    2.48425559446697
H         6.69915076203640    5.24842558374051    3.84668242606311
C         7.13160717217858    3.21778005348224    4.41225897765544
H         8.19519736403459    3.41676416957239    4.55931228272083
H         7.03708483615449    2.21926112893372    3.97845312316786
C         6.40374795924529    3.25366663325470    5.75470218739321
H         6.81833473534114    2.49488511052736    6.42138063045112
H         6.55126777285703    4.22895165570122    6.22387119097304
C         4.91251829357593    3.00879964999931    5.54665392608079
H         4.37252933665558    3.05816375614510    6.50074783647750
H         4.77231138511595    2.01017364100893    5.13323903375908
C         1.95526691413834    5.64005199266937    3.83831825480098
H         2.12236058223219    5.60629051161534    2.75626472779868
C         2.69452738102757    6.84753402189274    4.41236215032066
H         2.62710466073790    6.81740795333986    5.50357351934752
H         3.74914860779410    6.81209806822845    4.13273972824161
C         2.09318984895279    8.15422880104012    3.89922097245005
H         2.63485289875095    8.99823514520095    4.33157593355376
H         2.20751067234465    8.20557086192865    2.81315770883758
C         0.61437585356076    8.24454646662261    4.25579655353331
H         0.19554429042731    9.18365130646329    3.88797935759391
H         0.50564597864978    8.22967115381233    5.34228555243738
C        -0.13578035696988    7.06337816946845    3.65100698433692
H        -1.19414855699386    7.11178110505620    3.91708381217679
H        -0.06548965410944    7.11036431043384    2.56087923915114
C         0.45743625058387    5.74823155133894    4.14087962560266
H        -0.07850572157502    4.91152753101904    3.68708984786417
H         0.33303577213841    5.66929469184371    5.23200501943574
C         1.83782343327884    2.74369785962278    3.47133717694962
H         0.76794787226300    2.72274001210273    3.72193646209610
C         2.40240179145185    1.37481562822139    3.85005666674791
H         3.45713292652925    1.31284011314006    3.57263749918803
H         2.31655157511072    1.23562004134471    4.93129411934438
C         1.63644737146120    0.27502635976414    3.12266497401202
H         2.04261783263424   -0.70230548784837    3.39309565128557
H         0.59046720545230    0.30118898443335    3.43404919977125
C         1.73136944903977    0.48211057339039    1.61432193022377
H         2.77540571079051    0.39607106060960    1.30087790241984
H         1.16290785558461   -0.29109856635875    1.09316849108256
C         1.19995253780349    1.86021611522745    1.23249450291566
H         0.14043857587534    1.91978117268110    1.49247738132994
H         1.28875961966668    2.00853443379189    0.15338938176982
C         1.95951696835531    2.96719376772339    1.96588347943865
H         3.00498188386942    2.95027720655632    1.65544288104589
H         1.53434965314813    3.92970484575154    1.67657138979161
P         0.84249500275545    4.06391827990011    8.91634404047224
C        -0.37347051211087    5.46567994271210    9.05552892162545
H        -0.71362627287313    5.57123650743126   10.09310005864400
C        -1.56201963017482    5.16158109327617    8.14010743366035
H        -2.08712070729751    4.26717079012017    8.47806945096704
H        -1.18137346780045    4.95850759016420    7.13368748424778
C        -2.54531296939652    6.32630549626035    8.08949175067096
H        -3.36909246783294    6.07838522859656    7.41696699972326
H        -2.96567880048515    6.49101140617059    9.08561852056556
C        -1.84977581803734    7.59739194793949    7.61844321960993
H        -1.47508376825441    7.44810972723345    6.60396794052088
H        -2.55734078946601    8.42909572273068    7.59693456019004
C        -0.68673302977164    7.92296170872511    8.54793165816220
H        -1.07103003236220    8.12043366144761    9.55224040903083
H        -0.17264622204715    8.82424623568002    8.20594884722803
C         0.30140692213667    6.76162939265402    8.60296507793671
H         1.11909323664993    7.02138321566261    9.27805915530801
H         0.73005585315497    6.59219800614031    7.60787218062724
C        -0.13632630766216    2.57316404231073    9.43940863889123
H        -0.79218208500033    2.42149137091500    8.57080102890294
C        -1.01704285342867    2.65896154448036   10.68305269637800
H        -1.65809715377954    3.54165703539364   10.65341305610132
H        -0.40817416760471    2.71575697980896   11.58551322222201
C        -1.88667148049800    1.40285787066876   10.75446621556540
H        -2.52540243319266    1.44622113628102   11.64016340437974
H        -2.53475474754869    1.36137053126033    9.87589794835191
C        -1.02047847778532    0.14667756628588   10.80022979843766
H        -1.65698029269515   -0.74029267643495   10.82873649470908
H        -0.42066703965887    0.15490112227653   11.71447904623198
C        -0.09404145476213    0.08415824181167    9.58870508196459
H         0.54305553972895   -0.80098344243669    9.65203926117580
H        -0.68737374486258    0.00578376533998    8.67562075489339
C         0.76540091027249    1.34243116829335    9.51819964343399
H         1.41115362071532    1.30905512611639    8.63475665354541
H         1.39819081250567    1.39214390124787   10.40737364893980
C         2.13892242435865    4.46192478007246   10.19388305313269
H         2.43030493138631    5.48607587932251    9.92275361225417
C         3.38128479144442    3.59198615779807    9.99996786993936
H         3.18290859106040    2.56760744838025   10.31576452329021
H         3.64496199407532    3.57307760739986    8.93717791695725
C         4.53430559532959    4.15217165615605   10.82759891082209
H         4.77651926749955    5.15841463094057   10.47850950416548
H         5.42257848568992    3.53042499795347   10.69880447926142
C         4.14742504356683    4.20427551513113   12.30393745564521
H         3.97936732086384    3.18773002404924   12.66808241035084
H         4.96248958883064    4.63603065213014   12.88851783790980
C         2.87611269639403    5.02592503377059   12.50290258663839
H         3.06287332531895    6.06115809293840   12.20744556377773
H         2.59578990953211    5.02538255068325   13.55880052949597
C         1.73250404934181    4.45673127998384   11.66312811759801
H         0.82793123526865    5.04793366053324   11.82018193621246
H         1.53760603921804    3.43468520934954   11.99126603421966

