68
CSD_code = TUDJUX | q = 0 | S = 0 | Stoichiometry = C23H38ClN3Si2W | MND = 5
W         2.38710457235104    2.82303067506249    3.18829483007141
Cl        4.05167521691831    3.37734712046619    1.62998373756040
Si       -0.63897241934919    2.14518915641070    4.89926749999647
Si        3.36135755605901    6.07964474119587    3.60850763544900
N         0.52056467103638    2.85244753195961    3.81154575684880
N         2.21001379973484    4.80527453353308    3.36337850704548
N         3.38860212266080    1.93879509149501    4.37561118214951
C         4.11674540062799    1.51829299085314    5.43604735500228
C         4.99898233445652    0.42618198530639    5.36838404536353
H         5.10299032860486   -0.10323614749402    4.43257458176789
C         5.72479874942997    0.04288461407941    6.47704374737203
H         6.40069009301695   -0.79726518819547    6.40392224644634
C         5.59455106400349    0.71940762388427    7.67937480572570
H         6.16517243610476    0.41086754227867    8.54223250663571
C         4.72459380961906    1.79673175074819    7.76526156103081
H         4.61776971969700    2.32894618781957    8.70005293248657
C         3.99635120127313    2.19519911443590    6.66667334059564
H         3.31036784608969    3.03368640702684    6.71241463272174
C         0.17730066427678    3.72269219050256    2.78104714989780
C        -0.99677883480158    3.66921461623922    2.03351643633251
H        -1.72255522018991    2.90153833188204    2.25577896631180
C        -1.23263920676844    4.58628496086932    1.02254932299438
H        -2.14488110831605    4.52409708515138    0.44926657122502
C        -0.30798021739114    5.58316509731509    0.75121256907745
H        -0.50056909369536    6.29630594120655   -0.03593160594067
C         0.85657597280688    5.68552220503298    1.49032690198313
H         1.55828255445868    6.48274443365624    1.30114289842945
C         1.13461441771475    4.77251390413587    2.51251862856791
C         0.47745260172445    1.40090228569196    6.25271137225656
H         1.48622666176276    1.27487648435076    5.85899855870896
H         0.12067116412605    0.43452962871577    6.58979243544354
H         0.53846601464619    2.04420836672972    7.12399819264535
C        -1.70447993748775    0.76493059751995    4.09537177046681
H        -2.59429588253701    1.15964849653103    3.61306057893799
H        -2.03831253830017    0.06076312448990    4.85061430927537
H        -1.14546074544700    0.20433042077328    3.35139410216880
C        -1.78982253188715    3.51717732404625    5.57110322206358
H        -2.35094928024665    3.99290300123670    4.77171390627352
H        -1.22196776244489    4.29355044418882    6.07628857834047
H        -2.50393046140817    3.11379666522476    6.28119866674478
C         4.69212026657629    5.17133452188143    4.63980366728324
H         4.70045890267799    4.10331597895159    4.39323117452047
H         4.51302728855086    5.26596838788281    5.70619465261337
H         5.68376653554822    5.56455803532670    4.44402114957562
C         4.16616320275345    6.86018597328495    2.05358376555017
H         3.55217230842005    7.64770052208051    1.62489451662944
H         4.35815187781835    6.12010119750647    1.28165972494129
H         5.11878266356635    7.30822548669271    2.31951347709482
C         2.52417688541935    7.47349140513560    4.61324391778723
H         1.71464608079102    7.93557937889487    4.05663875273835
H         3.24482727195702    8.24744003134224    4.85125021929704
H         2.11192851425133    7.10476186021370    5.54713287860756
C         1.73508128875642    1.38328505992295    1.63096508308937
H         0.63658676243155    1.23545158528595    1.67050801264703
H         1.92707510977929    1.82836823204052    0.62952075945516
C         2.35218944324746   -0.03197281328284    1.61695825240977
C         1.82845376700418   -0.83786711688078    0.41895575875699
H         2.11015702414047   -0.35924260040698   -0.51659330919607
H         0.74310356301641   -0.91403705852119    0.45036037218146
H         2.24103112918130   -1.84483364231655    0.42425334426109
C         1.97010497508436   -0.76054070585681    2.91253414624447
H         0.90097261890739   -0.96064826043901    2.93912846593812
H         2.22741209687390   -0.14159511721555    3.77721947777500
H         2.49389599250402   -1.71133238220489    2.98732741242588
C         3.87943377334496    0.06589589195231    1.51598735115975
H         4.17117236415477    0.56873516521758    0.59510726730372
H         4.32769740461283   -0.92639800713006    1.52031476861017
H         4.27648515570462    0.64044765428231    2.36044050382352

