89
CSD_code = TUDLUA | q = 0 | S = 0 | Stoichiometry = C47H36F2NP2Rh | MND = 4
Rh        1.97707681177830    4.42017998983788   12.24177226997139
P         1.69529228111786    2.56310588993421   13.47830414246387
P         4.16681098717307    4.01161638438851   12.11752129719861
N         0.05085521070444    4.77610791103198   12.19680371538832
F         1.50895716977308    7.28447334347716   13.20500987625796
F         3.02475356278707    5.19357970599924    9.27586356459849
C        -0.66310566056595    4.99174638384242   13.30382667928749
H        -0.10535919973903    5.13484146311343   14.22135685304330
C        -2.04297918270093    5.03762751476933   13.30728742535137
H        -2.57178851666915    5.21548316867916   14.23048766161437
C        -2.72928683370732    4.84813407046520   12.11673756922336
H        -3.80779045848612    4.87160367388881   12.08735871748121
C        -1.98740336703514    4.63802058957070   10.96435678434738
H        -2.47227424214467    4.49652746050668   10.01086089073433
C        -0.60786701451205    4.61865999876080   11.04561033216376
H        -0.00486692222561    4.47902303315628   10.15429062251626
C         2.23597198662833    6.16643635594542   11.27027708953163
C         1.96252060500842    7.36891097827582   11.91009671542036
C         2.13212333976443    8.62088518682904   11.35481384424145
H         1.89670740093162    9.50615085793538   11.92585572925418
C         2.61537986019164    8.70384477951148   10.05930662210961
H         2.76387555220961    9.66848606932596    9.59861581095671
C         2.91221504785729    7.54774202542016    9.35787147208331
H         3.29783120017990    7.58453913595148    8.35052451308923
C         2.71503971230806    6.32878271219077    9.97657624837895
C         2.67295180095582    1.05969258173875   13.11731090416766
C         2.10620111162716   -0.04180853701788   12.48385441628195
H         1.04299793412793   -0.06003817985027   12.29497493756698
C         2.87531600142212   -1.12637949267887   12.10646743903447
H         2.41215940061330   -1.96881834502691   11.61394066996030
C         4.23369942522472   -1.12981228368807   12.36756881714906
H         4.84433793775207   -1.97198408568430   12.07797182528770
C         4.80501202451182   -0.05148090886797   13.01525786721232
H         5.86340672423302   -0.05400840964786   13.23528903793326
C         4.04964168854718    1.05957846790981   13.37818319836305
C         4.75222183288988    2.12410814444299   14.13006875726302
C         4.97583512065741    3.42384159433450   13.65575787057847
C         5.72177214503600    4.30073696319858   14.43796078374844
H         5.91775628284430    5.29797663734299   14.07407929157061
C         6.23200854722345    3.92042331894727   15.66481091134732
H         6.80247918434852    4.62482592992117   16.25228109579893
C         6.01317077865923    2.63679199068498   16.13135207992649
H         6.40588388471420    2.32591366237472   17.08807071717153
C         5.29615884628014    1.74715339700413   15.35545091479330
H         5.13233985036166    0.73760739656288   15.70647365978298
C        -0.01928392516491    1.92824142314200   13.54958382790880
C        -0.78153232941427    1.83420373796848   14.70682607336589
H        -0.33400452748921    2.04162281520575   15.66826329935993
C        -2.11846482489206    1.48148520827362   14.63235632811441
H        -2.70339760433262    1.40957727865303   15.53805142215005
C        -2.70972968614668    1.22850841951103   13.40690636192482
H        -3.75378969623439    0.95707601405982   13.35458466085363
C        -1.96187248733738    1.33715076813790   12.24490490513657
H        -2.42243282065686    1.15398598744679   11.28469200297907
C        -0.63093177000821    1.69627563224508   12.31699356106209
H        -0.04729972655303    1.81613689812543   11.41106378300292
C         2.11103824484466    2.80008108792623   15.23699176059554
C         2.41510679047111    4.09338380636847   15.64539139349380
H         2.38255020051919    4.89555704169555   14.90896856146541
C         2.77595767237395    4.34145938690358   16.95680444029292
H         3.01986561009971    5.34553457250950   17.27139866176046
C         2.82837516502950    3.29726570742236   17.86525389546996
H         3.11258185016446    3.48685567599976   18.89014569903057
C         2.52236619988383    2.00629724737621   17.46298665104857
H         2.56735174982516    1.19453123632270   18.17514240034468
C         2.16711922226565    1.75357147283951   16.15140875879260
H         1.94271118339548    0.74576899115147   15.82645721143626
C         4.60349006393931    2.65926315221132   10.98148528907981
C         3.60127035960346    2.16820520007877   10.15562797907171
H         2.61785224415271    2.62898192209007   10.20882887731450
C         3.86125432543953    1.12024722819934    9.29266064583688
H         3.08034509752341    0.73478007100478    8.65322608905317
C         5.12858811560898    0.56346625984606    9.24883735323765
H         5.33568201998478   -0.25630177431430    8.57613019502898
C         6.13428689034255    1.05434789416658   10.06673810051451
H         7.12216610909377    0.61740209684802   10.02808160720112
C         5.87504271983148    2.09791398008864   10.93515975823419
H         6.65179792993380    2.47619825161499   11.58734242756157
C         5.25180257783528    5.37716859651104   11.57668511140257
C         6.08811382127356    5.31790042458381   10.47047006811958
H         6.19261031622430    4.39605978484253    9.91761431592196
C         6.77198954663154    6.44885299130408   10.05632657427289
H         7.41665248902366    6.39538294171701    9.19063166949993
C         6.62322548729066    7.64578926337859   10.73416509778433
H         7.15266262907606    8.52651543365292   10.40104342422026
C         5.77775840808993    7.71731715059187   11.83020076421037
H         5.64296204825559    8.65418101168101   12.35097084073194
C         5.09004259066157    6.59316698307849   12.24086338670478
H         4.39417986714797    6.65156220290646   13.06882312388838

