39
CSD_code = TUDQUF | q = 0 | S = 0 | Stoichiometry = C13H22ClIrN2 | MND = 6
Ir        1.31952728458718    6.49078996096061    1.08318650354433
Cl        2.19211355907451    5.24170198959872    2.85415454086921
N         1.10489538255813    8.58946560911155    3.20822234809587
N        -0.63696295898011    7.30983061849250    3.21041814369251
C         0.50831683880302    7.57517224945998    2.57699467160525
C         0.39101047256801    9.03155814575182    4.39566057568547
C        -0.84289477488440    8.12483046952077    4.39737147288571
C         2.40343453411806    9.11986356534969    2.91685898861263
C        -1.52684907096932    6.22313502618115    2.92779201676132
C        -0.05438451112398    7.12152716441313   -0.38733672165923
C         1.10732892753649    7.91929078840817   -0.47268488453272
C         2.12044390786811    7.76965374390433   -1.59198774712257
C         3.25058959505316    6.78575506640604   -1.23169208299284
C         2.82067751940374    5.71931803567136   -0.25080996234502
C         1.68835004665495    4.93910111340711   -0.38813110930270
C         0.76473071281473    5.02272584498729   -1.58353486487053
C        -0.39311863615986    6.01526839387246   -1.36361699196764
H         0.13570975958731   10.09364672861535    4.31099225273369
H         1.01480815065047    8.89593545045904    5.28557946203683
H        -0.89757242195369    7.48977401188642    5.28798472938914
H        -1.78048034975307    8.68554543009959    4.31452227111669
H         3.08209858623754    8.94835050375801    3.75665041055433
H         2.34416822975659   10.19460813874977    2.72283680854410
H         2.79634572743211    8.60869811380082    2.03906244219929
H        -1.58175426292411    5.54536681329139    3.78372004369714
H        -1.13994578356948    5.67330045656766    2.07104857414475
H        -2.53110689363827    6.59551502738870    2.70563049614598
H        -0.94462981385086    7.59833129642745    0.02367588008674
H         1.02248726472307    8.93592481806102   -0.09248588322136
H         1.60684881142750    7.44193026346925   -2.49714086914399
H         2.56091441157452    8.74478382208445   -1.80966846896347
H         4.07678533467594    7.34242417990550   -0.78417351035724
H         3.63818178448590    6.30976795163314   -2.13907010341156
H         3.63156455297249    5.33397526834872    0.36341380512085
H         1.65911294934503    3.99530321384474    0.15067534135816
H         1.34629039311273    5.30939785849441   -2.46114592614709
H         0.34855324886180    4.03330379630036   -1.78288158039946
H        -1.25519371412989    5.47332486035492   -0.96806546698712
H        -0.70089479394589    6.45130421096360   -2.32072560545515

