92
CSD_code = TUDQIT | q = 0 | S = 0 | Stoichiometry = C39H47N3OSiZr | MND = 12
Zr        6.17589568632579    5.90750113361116   10.46428590385867
Si        1.55024492661564    6.23507318841349   12.47190511437682
C         6.61314730262148    6.32523684303546   12.97714644632597
C         7.05784096095168    7.47112851689996   12.28792878509365
C         8.14178306741895    7.09800912268820   11.46748587380470
C         8.38239753750845    5.71753392481429   11.66557416673792
C         7.43337383638650    5.24125859176483   12.59402024519201
C         5.82121607921173    6.10797149951120    7.99692661648016
C         6.98721152808972    6.85838253662958    8.25705088937212
C         8.00508758142698    5.96151615738349    8.64205143340799
C         7.46578288788438    4.66085234258293    8.65882443979244
C         6.10939374812091    4.74886584653688    8.26003458115313
C         4.82876347480070    3.11746055534998   11.13651596958359
C         3.56839225403951    2.60056497832606   11.34809338906833
C         2.67962947182166    3.71789048536897   11.42082976738621
C         1.25752476497119    3.75967759563572   11.63255858331846
C         2.88247354183861    6.23890909469839   11.06960445061804
C         3.46903714916103    4.86280125788442   11.24391961805968
C         3.91078807960436    7.38132985929331   11.28194628474937
H         4.29230547456571    7.25899893772506   12.31934075795538
C         6.15700066755220    2.40584704587482   11.11359808373871
H         6.93896539534436    3.17815797942123   10.98354990825102
C         6.28144574906922    1.40580256696879    9.95883229078126
H         5.61207835496833    0.56502920430805   10.11629611478450
H         7.29960139141210    1.02422211883403    9.90470393993569
H         6.03631587585438    1.87278864823783    9.00813144593577
C         6.39560445777008    1.67696649240069   12.44252645129950
H         6.24215042755927    2.34754713767336   13.28546125636315
H         7.40885588788470    1.28180502396926   12.48563648592468
H         5.69786220961534    0.84920463688576   12.54229913225628
C         3.20395064415774    1.19698123132898   11.58388970087973
C         3.12934768516654    0.27754135452454   10.54107897812237
H         3.32060764109248    0.60597801822362    9.52919603320765
C         2.78450274729824   -1.03878277803741   10.78952724564158
H         2.72891341783012   -1.74297019934871    9.97166497363504
C         2.50485019860937   -1.45380605112431   12.08064776883996
H         2.23609811684347   -2.48204862195155   12.27292925178074
C         2.56291799312778   -0.54333455267915   13.12252522843038
H         2.33731513272408   -0.86104052672436   14.13038471258738
C         2.90861442073770    0.77262821273067   12.87660818160392
H         2.95449573078849    1.48703137264384   13.68604465845822
C         0.38498184092540    2.60108233467347   11.21446961552639
H         1.00406471383579    1.77889330853303   10.85126259008670
C        -0.45770182245383    2.12019278401934   12.39377020176282
H         0.18225571835147    1.70712690712249   13.17008368808117
H        -1.15385990772723    1.34909421642323   12.07132885509038
H        -1.01243909594728    2.95830896989943   12.80566746556813
C        -0.51082830265532    3.08914308774465   10.07236744087585
H        -1.12514641690747    3.91415272365584   10.42163725137205
H        -1.15322485125468    2.28244291067812    9.72585359183734
H         0.09368393727724    3.44097080004862    9.23851684542121
C         0.29699819347050    7.64946142608610   12.61517750042467
H        -0.53273720253207    7.51762759820889   11.93217166343268
H         0.74887597596539    8.61646682258265   12.43574752036533
H        -0.10680463630009    7.64923549939012   13.62070606091532
C         2.52021632382582    6.09045243181311   14.12133667425989
H         1.88265579578794    5.64801985539591   14.87977654972354
H         2.85147620732624    7.05201715675607   14.50018739455580
H         3.39038414205796    5.44806558387532   14.01018449810550
C         2.25964391133764    6.30920543583925    9.69691604937324
C         1.27812196193531    7.25200443289936    9.40343380934153
H         0.98505189540649    7.95597266213767   10.16127864495152
C         0.69230740182274    7.30761712342057    8.15219394443926
H        -0.06900973217481    8.04767367679727    7.95131568876709
C         1.06905160684930    6.41862510105605    7.15976415368053
H         0.60751819771865    6.45761029735548    6.18401328753810
C         2.04232964925565    5.47536280684985    7.43627561818677
H         2.34730014495911    4.77305417722744    6.67273052344592
C         2.62877810677148    5.42078830598366    8.68970417941826
H         3.37138956013080    4.65782999869189    8.88730172542335
C         3.46054907234265    9.39689034783840    9.98140647442545
H         2.74102917445917   10.21296949294421    9.91501472529288
H         3.31322500919311    8.72025859297396    9.14415738928985
H         4.47798705758527    9.81158228302489    9.91914196187060
C         3.55270049854067    9.54450167153701   12.35121086519406
H         4.61010097876917    9.85309276706009   12.36881776104511
H         3.31471847744115    9.03475241837395   13.28235387240663
H         2.93870841765081   10.44285799352763   12.28332865976862
N         4.76969296551174    4.50203155250769   11.05976237550632
N         0.67366808161802    4.79385682866768   12.12310000561970
N         3.23397372769826    8.68589199076101   11.22808613404161
O         4.96443265681282    7.31895168950003   10.39351113686608
H         7.10980957036863    7.91759408294547    8.06262938579622
H         9.23695342842456    5.16138144905344   11.29710653308645
H         5.46482372048200    3.91137332306860    8.01897203951822
H         4.89947672875563    6.49620925601156    7.58169265575761
H         8.77327409256741    7.78486370855856   10.91507579236229
H         7.45124662694127    4.27450221766276   13.07845723784302
H         9.05152398619530    6.21020778857966    8.76662704592846
H         6.70210330897390    8.48322355927225   12.43692105180383
H         5.87405336192204    6.29834037164681   13.76878185389725
H         8.03253224191806    3.74525739701099    8.77939685191672

