54
CSD_code = TUDREQ | q = 0 | S = 0 | Stoichiometry = C19H25AuBr3N3O3 | MND = 4
Au        5.13465690064447    1.52426373178345   10.83286861405759
Br        6.01709566342703   -0.64186663078285   10.06285972052235
Br        3.26807253078867    0.50542530715390   11.97555075171392
Br        4.54105598203095    3.77746593624203   11.61412857317172
N         7.22585629187410    3.25869584786562   13.99570219082463
H         6.73595125074533    2.40996542548043   14.24485338036330
N         7.91053676151275    2.42666684337698   10.69740222576776
C         6.77751477409008    2.36250842967384    9.98373096005078
O         8.70270214050975    4.28736718546442   12.62431915787551
C         4.51012494107192    0.67031958648621   17.12549359243221
H         4.23621771600272   -0.29052804355781   17.53476250434153
C         4.15710136351173    0.99845356398865   15.82820961590083
H         3.60129170831964    0.30313117985401   15.21725998671157
C         8.04367499202623    3.32340835094603   12.94097858978105
C         7.12473073924023    4.32894772455166   14.96047444278772
H         7.43174444910093    5.25704133340060   14.46630514183234
C         8.31135588149245    3.38635095885746    8.78374123650806
H         8.74114341455782    3.89439310142066    7.94871558677274
C         8.87193832167514    3.06798034822058    9.97349393587627
H         9.84790008080761    3.25902503425572   10.36605165479838
C         4.51509562638628    2.23047269727275   15.30816694322197
H         4.21060682076343    2.49431455288287   14.30676306236997
C         5.20295978835083    1.58452590739363   17.90247213575012
H         5.46442407066068    1.33818285259454   18.92150088480099
N         7.01708961556113    2.93413451603487    8.79622858955813
C         8.07909479041369    2.04010800843557   12.07041725053431
H         9.06086620184076    1.57387455575960   12.19149022695767
H         7.30864989785370    1.32509802597050   12.36436099373910
C         5.67527458546920    4.45252153244322   15.47135494351528
H         5.64881477990686    5.25062134566658   16.21380950865513
H         5.03484303673038    4.72525853976344   14.63147022476364
C         5.55744950257148    2.81601652994902   17.38058033149404
H         6.08656810542936    3.53115906375870   17.99452983905726
C         6.08145119407069    3.17677200805412    7.68528941491613
C         4.93023695707493    2.17422508278752    7.70083951174469
H         4.32121236682059    2.31504248000295    6.81179607723714
H         4.27522600113693    2.32167610404317    8.55843236283634
H         5.30128947182025    1.15163736056655    7.69774266320196
C         6.83801865588881    3.01845932514909    6.36237444724021
H         6.12569465588911    3.00763436508303    5.54242062749091
H         7.38880113661272    2.08051374510877    6.34655700441403
H         7.52564757450643    3.84044760620019    6.18558652901555
C         5.55077929716995    4.60471913854392    7.84015133723395
H         4.87335653257051    4.83612924833948    7.02333881520308
H         6.36756367907094    5.32285970597924    7.82888114461889
H         5.01118858932840    4.71901316988438    8.77754677501445
O         8.56966790608046    2.86516928413418   16.13657704752152
C         5.22456389665999    3.14896542846667   16.07289073483082
O         8.28189644850655    4.91696376363426   16.99664906521577
C         8.05591952453910    4.09784408897137   16.14995643406270
C         9.41184075630879    2.52545181182832   17.23194253620759
H         9.88334563833792    1.58103089142406   16.97351011461168
H         8.81536604683699    2.41686841243350   18.13950966359744
H        10.16063094539743    3.30357363676170   17.38896089728370

