48
CSD_code = TUDRUG | q = 0 | S = 0 | Stoichiometry = C17H26ClN3Pd | MND = 4
Pd        4.45148636807063    3.77826837226701    5.20427579277315
Cl        4.60747138547806    3.54873628991940    2.95058608733686
N         5.41893087955592    3.17047291351100    7.94332113689822
N         3.30682508569908    3.56114278830656    7.91718910328887
N         2.26664620519787    2.79750368266050    5.17718422790966
C         4.42081670382313    3.62829241423476    7.15893373988315
C         3.60236404157419    3.06195130530918    9.16109025141925
H         2.85810902395638    2.92520473443746    9.91882128619910
C         4.93369082935505    2.82604096758602    9.18052648465004
H         5.56104898098025    2.43325438975479    9.95384169099706
C         1.99120215053072    3.84341515401618    7.40949932771036
H         2.02179978723792    4.80247192284442    6.87915424985049
H         1.29451977153363    3.91602498138062    8.24800405221612
C         1.54637724352014    2.72904660337240    6.44644625209462
H         1.75298449483490    1.76629141798526    6.92602955538910
H         0.45892893888993    2.80391405564197    6.28580543450292
C         1.61649608437600    3.75661374599135    4.27953877164539
H         0.57164072288157    3.46975298181978    4.08489518041689
H         2.16486821141574    3.78274312691340    3.33578036137297
H         1.63687263044977    4.76050865760675    4.71415106955845
C         2.32475409887036    1.49126066539291    4.52815359552084
H         2.81617241456051    0.77056360827483    5.18461199566304
H         2.91091602053745    1.58699351312672    3.61247795892465
H         1.32137802316702    1.11783365774718    4.27624690006789
C         6.78360496942564    3.06817298241962    7.55701754995381
C         7.16954301549363    2.12857701524546    6.59792791136730
C         8.51354466501208    2.05206529397235    6.25649883151150
H         8.82033406733946    1.33428757927209    5.50978561727060
C         9.46228652356207    2.87718427716695    6.83815016302955
C         9.04843810123649    3.80332986885188    7.78686374257102
H         9.77780076492194    4.45977413920819    8.23931771895511
C         7.71858528481437    3.91566769064508    8.15601434795026
C         6.17241924852496    1.23275389698964    5.92796195888574
H         5.63628942488199    1.80722253532815    5.14094201957782
H         5.44045562899128    0.84988949086924    6.64130239471864
H         6.67273070442526    0.39411193950178    5.45060985915375
C         7.29230153876076    4.94529208346649    9.16042211566912
H         8.06117655140425    5.70556226228658    9.26926993971179
H         7.12548477356563    4.49159909852843   10.13763778020891
H         6.36673875875173    5.42769979564720    8.85005511909744
C        10.90940848940371    2.77793037994923    6.46476519674325
H        11.32210794844183    3.76616310125708    6.27190502455978
H        11.04164387688147    2.16350021945642    5.57841381196790
H        11.47824532418053    2.33260982288270    7.28121059300425
C         6.02559418647319    5.08708568399956    5.15843289441503
H         6.27369559144851    5.54386985693207    6.12065821232641
H         5.73002171819349    5.87191045358104    4.45131563438396
H         6.90644874737150    4.56793858243767    4.76575705667997

