65
CSD_code = TUDSES | q = 0 | S = 0 | Stoichiometry = C27H35PPtS | MND = 4
Pt       -0.49236023155699    5.57484518958385   11.72901154779794
S        -2.45484840730148    6.98254840635349   10.84771569774371
P        -1.95206800870264    3.72622821109159   11.84361096358742
C         0.80993599724406    7.14710243140611   11.51447117479003
H         0.75186679510627    7.80685321600090   12.38958706073302
H         0.54376530286457    7.74987679553754   10.63491093349045
H         1.86274997963874    6.88112280818001   11.39015002601012
C         1.05864678603753    4.48638700554592   12.58743557517599
H         1.40952809176686    3.78202186457869   11.82290230945963
H         1.88631495339471    5.13534926765404   12.88140180897829
C         0.54533311077849    3.77884649054450   13.78140640752122
C         0.62047731020985    4.40072879382569   15.02958043469491
H         1.01206827576196    5.40614258697987   15.08314788139491
C         0.21450853590531    3.75383310075807   16.17836613236172
H         0.27789270660752    4.25418433298266   17.13412224261712
C        -0.26215710413954    2.45612356279970   16.10991632684180
H        -0.56727267464716    1.94215677115826   17.01054338941060
C        -0.35804013757404    1.80445616385227   14.88742123363134
C         0.02435262447941    2.47200085024460   13.72231087762709
C        -0.89551511326780    0.40192018501298   14.84627896294763
H        -0.09420718242433   -0.31480428402448   15.02804466194964
H        -1.33678064855754    0.17263757694611   13.87911030436346
H        -1.64696840785083    0.26180406360932   15.62122559833398
C        -0.06404372209076    1.79416745746069   12.40977596415686
C         0.77563948701944    0.71799297170976   12.15714430358401
H         1.43572011345434    0.37326157656723   12.93947572626697
C         0.79078759162109    0.11469435198527   10.91336365586147
H         1.44101795016853   -0.72633524006912   10.72204394685279
C        -0.00231541864573    0.62479032200174    9.90499444794147
H         0.04115009201179    0.20176498805975    8.91118010271184
C        -0.84614494593368    1.70873418315541   10.13256900460487
C        -0.93199548958308    2.26593663870065   11.41214623362913
C        -1.55519283810437    2.24684534917316    8.94787820579456
C        -2.65499662153924    1.57008348717960    8.41942440705366
C        -3.28056007509616    2.07136255171778    7.28595324221729
H        -4.14037962565285    1.55675632538826    6.88147335297107
C        -2.80924692043493    3.21642008786636    6.67137219159662
H        -3.30136038085807    3.59898866409992    5.78896163659847
C        -1.69823818590773    3.86429755561746    7.18001442262703
H        -1.31615011167029    4.74473606535810    6.68137108058590
C        -1.05341165427836    3.39091687532225    8.31607956221716
C        -3.16521903341481    0.31491948642432    9.06465606336054
H        -4.22789474941424    0.18669097991135    8.86886877816528
H        -2.99774488846035    0.32807761816810   10.13982392976126
H        -2.64251885802246   -0.55249458071599    8.66036198782492
C         0.15441362786930    4.09601269382705    8.84296742774962
H         0.55603262291363    4.77952617967578    8.09868266039210
H         0.92784669672782    3.38305955680265    9.12154341297148
H        -0.08652161747090    4.68744193604844    9.75671509689718
C        -2.87566106277131    3.18256652391051   13.34527818574420
H        -3.77062439855787    3.79978461845362   13.41641909073881
H        -2.28885003739716    3.32443687004940   14.24671076933279
H        -3.16549145878826    2.13579630863314   13.25929710870619
C        -3.41271980167782    3.69641891470806   10.71996255330065
H        -3.85549586924292    2.70313902384491   10.67906973522059
H        -3.16655839469120    4.02621390703497    9.71608360201983
H        -4.13847473111340    4.39598167819550   11.13602267818028
C        -2.07998630382008    7.20286457832552    9.08498149526313
H        -2.79381373685843    7.90483172038314    8.66141473616065
H        -2.18778568067276    6.23242591026889    8.61041131096876
H        -1.06425967877649    7.56655258991604    8.95985859751013
C        -2.26879558541000    8.69876674773945   11.40373719040710
H        -1.27505205114373    9.06574733079645   11.16791919786885
H        -2.41679449620725    8.70004853153653   12.47892700403241
H        -3.02983231184803    9.30701127413304   10.92089434869200

