108
CSD_code = TUDSAO | q = 0 | S = 0 | Stoichiometry = C49H56P2Pt | MND = 4
Pt        4.27647293119075    4.37602690661115    2.76612291329294
P         2.37237035288310    2.95077028669144    3.19445302854226
P         3.17929827298997    6.48363156972810    2.68280280217860
C         5.38051733976334    2.62375405496926    2.65468217510637
H         5.60687245715292    2.38130169762315    1.60948308623727
H         4.83246993569931    1.77974094109784    3.08032535854327
H         6.33404951017106    2.67551175265683    3.18698602994916
C         2.13825434139191    2.14368297014980    1.56481229823794
H         1.26730297310387    1.49460650555236    1.54614775346141
H         3.02489834873885    1.58573518464905    1.27815084747899
H         1.99099656609560    2.95437898560419    0.85095655108543
C         0.61584215896445    3.48400157096348    3.40892558093179
H         0.31552301216409    4.01744408202349    2.50949223916188
H         0.50493634343286    4.13993973486442    4.26708943676925
H        -0.02481333200838    2.61353662962763    3.53255892206642
C         2.49647571336922    1.61497422594947    4.46721897513263
C         2.59278706550446    2.06648534605058    5.79486320529529
C         2.85281530432455    1.18167181932091    6.83397303277745
H         2.92533842847914    1.56808878872272    7.84077375697530
C         3.01813757913463   -0.16663672858053    6.58737733945829
H         3.23940914306117   -0.85092058027896    7.39284017769014
C         2.86128933806420   -0.63065188377621    5.29784683564397
H         2.93357583280383   -1.68901341030005    5.08981758507223
C         2.59701514179174    0.23349401015806    4.23611628448516
C         2.34232980685217    3.47168519611951    6.20926560259351
C         1.06297889184079    3.80629693558379    6.66658201106491
C         0.82454651707679    5.08588627619409    7.14952482906696
H        -0.16859583285853    5.34772078141072    7.48717289724109
C         1.84949694209118    6.01054735623495    7.23020864276963
H         1.65687988410649    6.99865485451805    7.62356001259142
C         3.12439011132063    5.65626954848915    6.83337154310268
H         3.93655800625743    6.36213121749290    6.92974607864313
C         3.38729115596261    4.39285849589689    6.31874463004482
C        -0.04483695655570    2.79249446995789    6.70435908171398
H        -1.01293266316360    3.27218720744687    6.57298740124240
H        -0.04745870858257    2.29347018221699    7.67448897236189
H         0.08027036503994    2.02838028307466    5.94226763181159
C         4.77330804492267    4.03909759250345    5.89912105375874
H         5.50344218208316    4.65886544767883    6.41269518837273
H         4.87457720283461    4.22190417046528    4.80881353771854
H         4.99048308350762    2.98931125345498    6.08257812975077
C         2.34868925631555   -0.46071111298639    2.94483849484542
C         1.02843457286955   -0.71568775234830    2.55635865877626
C         0.78267806185880   -1.41008311772456    1.37959080374565
H        -0.23986882252052   -1.59491686647069    1.08191067945838
C         1.82567170669001   -1.87294263122467    0.60040285771757
H         1.62413783746014   -2.40447127773004   -0.31782795597716
C         3.12600937772087   -1.68029587931576    1.02301396400413
H         3.94703607073281   -2.07506429848711    0.44187015918154
C         3.40319065419101   -0.99757235413185    2.20130900094462
C        -0.14769591990560   -0.29437091234741    3.39161562695768
H        -0.81893844232973    0.34613775833492    2.81896915329804
H         0.16484277471900    0.22957690908387    4.29046848756392
H        -0.71501908981753   -1.17514077500828    3.69218297476992
C         4.83479392374710   -0.88760477899270    2.63541483072218
H         5.28394552138516   -1.87987620408949    2.66757593920068
H         4.92622077126855   -0.43529890705235    3.61851424783601
H         5.40442475456329   -0.29121871997046    1.92409891928760
C         1.36848023260842    6.67330515243346    2.39507599698653
H         0.86831101584533    6.39028443941993    3.32058917617808
H         1.00804784673870    6.03606205434220    1.59455826227833
H         1.12981357476534    7.71061452844028    2.16717499602194
C         3.22280577181969    7.61569868970243    4.13569775912365
H         3.04905687614654    8.64416235067103    3.82052816123775
H         4.16865963842486    7.55219374602663    4.66230936146364
H         2.43032038121003    7.30349433173770    4.81434592742938
C         3.94813959510431    7.50031886904749    1.36125916897303
C         5.19962146729798    8.07075420106866    1.64066244379529
C         5.84145492320208    8.85300058653250    0.68907476233630
H         6.80629602173876    9.27721517958273    0.92518722025074
C         5.27246682874643    9.06063342331106   -0.55299767500324
H         5.77289885473296    9.67393619204259   -1.28799904919318
C         4.07760494297241    8.44113349056929   -0.85980072139713
H         3.64748143730793    8.54580983857898   -1.84589568736478
C         3.41843451063719    7.64633563422997    0.07457689371630
C         2.20681147618538    6.94210276402349   -0.40626302980849
C         2.28849192662662    5.57859673071471   -0.71223524215469
C         1.15637671910094    4.92949390192584   -1.18798402986313
H         1.20847977306859    3.87561087374198   -1.42479726386226
C        -0.02874023434656    5.61648177980555   -1.37784952791719
H        -0.90191730649531    5.09758150864096   -1.74600576368455
C        -0.08889708517632    6.97193086380074   -1.11315567209589
H        -1.00835774305448    7.51462206012708   -1.28050315337081
C         1.02528468281973    7.64917433295405   -0.63615270696375
C         3.57248907379435    4.83056054650783   -0.54962620410428
H         3.77045779778536    4.59969000989595    0.51500179650282
H         4.41096864558400    5.42216036312066   -0.91242302353384
H         3.54251164815347    3.89095483109720   -1.09688749310822
C         0.94097501337628    9.12459219143575   -0.37243657562595
H         1.65133972031170    9.43296618132012    0.39142448623984
H        -0.06423192374943    9.40114548610694   -0.05972657873059
H         1.17109592645895    9.67972485420407   -1.28237431697914
C         5.91127354609494    7.78601162138624    2.90546528633058
C         6.22916811791436    8.81696559639176    3.79064251546534
C         6.93550627551206    8.52657362516226    4.95073106250188
H         7.17042594032253    9.32327142616328    5.64253684841100
C         7.34334672853331    7.23127568929040    5.21731690687095
H         7.90162131890619    7.01724660744937    6.11811269681710
C         7.04936461547501    6.21809212493649    4.32869756078161
H         7.39096233929785    5.21201768641709    4.52592041818860
C         6.32368281433101    6.46384559548392    3.16082829399175
C         5.80193169465081   10.23504967188683    3.53572578162851
H         5.52024704841727   10.71738546213546    4.47048240436065
H         4.96188543228669   10.28239793337547    2.84658971040575
H         6.62452281818240   10.80633453818835    3.10430992269342
C         6.05480121858512    5.35690364301057    2.21768572582590
H         6.90466127901773    4.67009492231828    2.22554405154157
H         5.93945098275842    5.73801706090748    1.19734781464122

