67
CSD_code = TUDSIV | q = 0 | S = 0 | Stoichiometry = C23H36ClN3O3Pd | MND = 4
Pd       -2.24453336895717    1.17718891030236   11.72594785042942
Cl       -2.41256486241695   -0.72433327005487   13.15272974525538
O        -4.49516511658831    2.72186220593527   15.73852026402322
O        -1.87693857291500    6.53903693758451    7.13920946028248
O        -0.91976448635963    7.41297386662455    8.96993115519514
N        -0.12931065753409   -0.31504430178843   10.23565728209889
N        -2.12469842743383   -0.89773321575643    9.61757609880632
N        -3.19429696831749    2.38857998331493   13.20521187389446
H        -3.25940221335612    3.36578048665723   12.89837051960671
C        -1.44282606615494   -0.04319422739085   10.40871991812935
C         0.00629805689652   -1.32186603261217    9.31455200294125
H         0.94601663909771   -1.71265870438408    8.99162789749071
C        -1.23335421174988   -1.68879431455621    8.93624097977135
H        -1.52646704833199   -2.44920611727423    8.24442059938175
C         1.01584231669400    0.37008288962355   10.85700514631462
C         2.25642856466720   -0.52766305726171   10.78912789713172
H         2.04610780751980   -1.50863638833054   11.20876498942413
H         3.05285725448161   -0.07271298806432   11.37188469982162
H         2.62130577460192   -0.63948394682074    9.77130222363380
C         0.73123828578066    0.67005252114733   12.33263222746593
H         0.40957474042884   -0.23718312629915   12.84505125316565
H        -0.05401668944523    1.43607492301718   12.43709734889116
H         1.63654923563278    1.03738399377378   12.80972980265847
C         1.27376437862115    1.66517068952218   10.07989752516887
H         1.50327643261345    1.44583118924329    9.03913908480560
H         2.11271117142844    2.20045177810426   10.51552279483734
H         0.39287328955050    2.30327897037272   10.11140257466458
C        -3.56993476963765   -1.15061505855351    9.48700305931420
C        -3.94477719370390   -1.04055167326472    8.00342022918373
H        -3.45342224027128   -1.79918946189935    7.40091208582021
H        -3.66816537649420   -0.06232499920875    7.61577795598455
H        -5.01791921462678   -1.16571688150413    7.88824671084345
C        -4.43493275021744   -0.17585380723318   10.28808776586590
H        -4.23388115776309   -0.29304046593925   11.35935142945489
H        -5.48012780901173   -0.42468038566071   10.11450395873474
H        -4.27330737240282    0.86110499306476    9.97475543574640
C        -3.83118943532908   -2.56282516012075   10.02646937628459
H        -3.50657808111738   -2.61481673258194   11.06387566098273
H        -3.29713656087966   -3.31905625341561    9.45732742941713
H        -4.89326942654306   -2.78732006876416    9.98281109136236
C        -2.45053969609993    2.35985846105432   14.47074216262554
H        -1.44127018062408    2.75858697622257   14.31846699675206
H        -2.37968654372243    1.31518556510947   14.79312952087000
C        -3.17826799593303    3.18427674564466   15.53637136287323
H        -2.67728200590828    3.10148501663206   16.50203466744106
H        -3.19972306197119    4.24660516363348   15.23333201500167
C        -5.23573404193437    2.74071478706647   14.53857936467452
H        -5.35263948003213    3.78212799226068   14.18910829816679
H        -6.21919287660908    2.33733521099444   14.78440036337195
C        -4.55935850919718    1.90468054932878   13.44731279726160
H        -4.49075371382078    0.86109014829843   13.77528927499542
H        -5.13803111856692    1.96415141845761   12.51838434656604
C        -2.00829145236641    2.78778367453969   10.54576222837540
C        -1.37939672449581    3.91207812267979   11.10132935796929
H        -0.98588911661720    3.87028832145069   12.11578666974913
C        -1.21004120857721    5.08949893271603   10.39832970721602
H        -0.71947038306901    5.93618294813207   10.85496569083966
C        -1.66986880905593    5.18788757537745    9.08737925899409
C        -2.28379389762334    4.08014092587982    8.50620464020223
H        -2.62770729394639    4.15954874301636    7.48507176783278
C        -2.44180019646586    2.90967772925630    9.22200910996527
H        -2.90444579130974    2.06705820401541    8.72131885596763
C        -1.51641398721452    6.41385571569745    8.28657809771800
C        -0.73424549208800    8.61956300056344    8.25113749468077
H        -0.08604404566571    8.45202132234211    7.38787755915714
H        -0.27401376689615    9.32031222044627    8.94342115811370
H        -1.69356248064723    9.00345082963807    7.89666182827013

