39
CSD_code = TUDTIW | q = 0 | S = 0 | Stoichiometry = C12H17AgN4O5 | MND = 2
Ag       -1.63039602814430    3.80053187918298    0.79664499577871
O         4.75288356915000    3.98010388169657    5.29104962858866
O         2.53525278484362    0.88817369779150    6.94062183116503
H         2.42511983588820    0.08098783044723    6.42041220175240
O         2.40401121274984    0.29390918777087    4.04071617909132
O        -3.35634849926258    4.33990800580674   -0.43825894495689
O        -2.18924574907179    6.11554026880699    0.13795050511271
N         0.57817045229997    2.20314440089776    2.51312955157047
N         0.93991762083401    4.34206231203319    2.50179875890580
N         2.97251593847034    4.34528020929689    3.93761262800445
N         3.57616858145691    2.16079176275216    4.64057766718135
C         0.10817822073171    3.35931442749696    2.03928098124068
C         1.92550154227024    3.78822425272148    3.26495117876242
C         3.82332204071783    3.51833493233596    4.67043278872542
C         2.53428490443560    1.50037716740967    3.98815342363783
C         1.70232959430468    2.42497264468167    3.27358869648122
C         0.00516396652561    0.90709865077303    2.28862889103553
H        -0.85130358819296    1.01630178656858    1.62218761678852
H        -0.31445623834082    0.47123061319948    3.23553727115932
H         0.74529758683252    0.24338621281389    1.84212755394400
C         0.73240126582923    5.73372316137097    2.17779373959774
H         0.56856666678817    6.32356455703395    3.07778451795164
H        -0.16128022120975    5.80722129629448    1.54908413958011
H         1.57837827687923    6.13422483768302    1.62156532965599
C         3.24925784246070    5.76909048502551    3.97486524062070
H         3.44607002381007    6.15109774401878    2.97506390768930
H         4.14150212625121    5.89851414579035    4.58673822346798
H         2.42526124681192    6.31280871318258    4.43322055707239
C         4.43940175535426    1.33480936707839    5.47726212861134
H         5.43941623598533    1.76822309280685    5.48406000034401
H         4.45595143318506    0.33832175801682    5.02985511758518
C         3.88444972699590    1.26952032135407    6.90619661886781
H         4.50914341571210    0.57959297041180    7.49100159624989
H         3.92785893202679    2.25930794166491    7.36682430544525
C        -3.15121692583378    5.58388260586251   -0.44806409909418
C        -4.14207184085609    6.45376208950010   -1.20006187214906
H        -4.98428512526526    6.66255172153968   -0.54314219716274
H        -4.50808116695219    5.92523992345377   -2.07553532678346
H        -3.67319141646834    7.39146914342122   -1.48345533152259

