76
CSD_code = TUDTOD | q = 1 | S = 0 | Stoichiometry = C32H40N2PPt(1+) | MND = 4
Pt        5.64568130939551    9.27542500884485   21.34782685124817
P         7.17214287315890    9.22771205413853   19.65044048037137
N         6.72330028656078   11.36021634463533   23.38783204496384
N         3.30748037656832    9.02683522227708   23.38531164717168
C         6.51995869604125    7.98220178395586   18.50614930648019
C         5.24722081054370    7.53679164542821   18.88979054038370
C         4.66151060268440    6.48951240615035   18.19060929318807
H         3.68660186854641    6.12883804010290   18.48424153239323
C         5.31756595183045    5.91467420078718   17.11766300615213
H         4.85876827287619    5.09885285998064   16.58056607590993
C         6.55426553979280    6.39042120428731   16.72212912753949
H         7.05565492916713    5.94647309792066   15.87519999322666
C         7.17667769583590    7.42867433338299   17.40435241273907
C         4.49765857071759    8.21317576590839   20.00109930504727
H         3.84202497879714    7.46944562603768   20.47154260177337
H         3.81957478590059    8.94998398684699   19.53304366849415
C         8.51970515184827    7.89475622946283   16.93196621003734
H         9.27803305331936    7.14416935494407   17.15719205385280
H         8.80756104926103    8.83612824891206   17.39203061535031
H         8.50790440421816    8.02558495013479   15.85092871700666
C         8.73575458045964    8.47857019438292   20.30915367440301
H         9.35781319530707    8.12883946344907   19.48057567483819
C         8.26767074379451    7.27896459098700   21.13637102027696
H         9.10109854131765    6.82614561084855   21.66944637573297
H         7.81836452716827    6.52132833226010   20.49540332627457
H         7.51624014436418    7.59485417756430   21.87950305745001
C         9.53270014561443    9.46503427232303   21.15396456736580
H         8.92575520694159    9.84003411162062   21.97791554518423
H         9.87776954635832   10.30798709064527   20.55824580666680
H        10.40633334815212    8.97012399102483   21.57424404194408
C         7.52023677956089   10.81483217465944   18.73999749188936
H         8.55883243980473   10.83232566204129   18.39103975852873
C         6.56109656925560   10.92766104690315   17.55783671610618
H         5.52989573333474   10.85912899636943   17.90503112535971
H         6.72825331345767   10.13994832064758   16.82746445291179
H         6.69049343214354   11.88719711061999   17.06147347568182
C         7.28826287366210   11.96795989650153   19.71595048844578
H         7.38993615197756   12.92297028119908   19.20388655364074
H         7.99974128242426   11.94517608582760   20.53906667831378
H         6.27454800269362   11.90389960015996   20.12588430651696
C         6.59904245293062   10.48768592564491   22.62541121259910
C         6.80823391516193   12.38845001470629   24.26648153154093
C         7.83467441258457   12.38614294643284   25.22131840440115
C         7.88210671704415   13.43974757034090   26.11882681325113
H         8.66226517997955   13.46386664882458   26.86377641965963
C         6.94270541769607   14.45668363055138   26.06732811089671
H         6.99530741588247   15.26938205769810   26.77466327258504
C         5.93796044256003   14.43948874184624   25.11514896820382
H         5.21235477091739   15.23763883430788   25.08168269280790
C         5.84800035594380   13.40770450319279   24.19350140058002
C         8.83868633302961   11.27739775706776   25.24345439226544
H         9.45963419471115   11.31015284871155   24.34744230235530
H         8.34574412294891   10.30581637201980   25.27141290383120
H         9.48575789990889   11.36557177990378   26.11086781584438
C         4.78675896669882   13.39836878605989   23.13757056655986
H         3.91048252667245   13.94631584728785   23.47401559051296
H         4.49037391385191   12.38471605920291   22.86575866945554
H         5.16073265674252   13.88735718908503   22.23698244693225
C         4.19632245387375    9.09919889313765   22.63778394706232
C         2.28954875171852    8.95221672547319   24.27401318825532
C         2.40969085646872    9.63636046992327   25.49297155525032
C         1.35274725279846    9.55132120441970   26.38394149927878
H         1.41750041857836   10.06741435325149   27.32933354994094
C         0.22153605506399    8.81405425525415   26.07394226111841
H        -0.59158813168530    8.76060456983006   26.78078580276737
C         0.12511033340739    8.14380670019830   24.86551587788802
H        -0.76028328252148    7.57131651530036   24.63646167742410
C         1.15504607778909    8.19707859793927   23.94077606829892
C         3.63997768510910   10.43278830610330   25.79530175770153
H         4.53874744432914    9.84043467428988   25.62325640181387
H         3.63330866298686   10.76697302925544   26.82853047392704
H         3.69151278833084   11.31109684316194   25.15098819931691
C         1.08616981896020    7.48128949524476   22.63038600736652
H         1.22058946479443    8.17872269548432   21.80339119022040
H         0.12730758580626    6.98479987401942   22.51586320791625
H         1.87534630404275    6.73178191067294   22.56504419926297

