59
CSD_code = TUDXIZ | q = 1 | S = 0 | Stoichiometry = C22H30Cl2RhS4(1+) | MND = 6
Rh        3.34534739582254    2.08877573686704    3.09217141035186
Cl        1.55962601756699    1.57704651353180    1.66138144179203
Cl        5.17175248167973    2.61979123928469    4.44314031969627
S         2.66362742685283    4.36112142437087    3.23988059141195
S         4.73755333905641    2.75288749761931    1.33856517726631
S         4.04380540356470   -0.12146375439641    2.78470879405475
S         2.16226708588792    1.37657203706412    5.01809999193673
C         2.10987650903070    4.82977884841202    1.56118795183821
C         3.24391180496233    4.91673180928913    0.55045165536766
C         3.71945110985291    3.55431042702236    0.05962709297796
C         5.05226806287560    1.11671660665725    0.57503337900547
C         5.46627424742305    0.15315807216982    1.66794642855452
C         4.89109270435520   -0.62340333460021    4.31845313444572
C         3.87909312784366   -0.88647220875206    5.42543269857106
C         3.28441518231340    0.37137303047979    6.04276549201731
C         1.01303058151095    4.30753181313795    4.03754434334110
C         0.36942157741292    5.65699115460532    4.00516970408561
C         0.89545247678971    6.69502880318381    4.76687385642640
C         0.30504251307268    7.94487965267413    4.74235418044130
C        -0.81432733565235    8.16841172388329    3.95647056360273
C        -1.33971722458873    7.13986714596389    3.19304371737504
C        -0.74701198923137    5.88894246494733    3.21122182638169
C         0.89390982941727    0.14735540464831    4.52342179904322
C         0.23935472343818   -0.42828740162053    5.73813637172450
C        -0.44038173974914    0.40786565716301    6.61785753333606
C        -1.05120962453217   -0.11114245273258    7.74387384119404
C        -0.98874448291943   -1.47104556819146    8.00222988646366
C        -0.31581170967340   -2.30866519647618    7.12981507334832
C         0.30103663718353   -1.78958349415070    6.00427583652005
H         1.64473356678522    5.80745026420956    1.69031926255887
H         1.36209945938109    4.10136691832824    1.24572065447191
H         2.87739220496434    5.47542882414503   -0.31390899281573
H         4.08311271908224    5.47385797419450    0.97437447392392
H         2.87661364444136    2.90190040111526   -0.16936206903498
H         4.36258896588546    3.66428549501680   -0.81315437587724
H         5.85159826209924    1.24461196497076   -0.15579014315811
H         4.13873470885115    0.78648526268446    0.07824025645744
H         5.74658647703664   -0.81526239556131    1.25156495703599
H         6.28488498983449    0.56165274120966    2.26219834077157
H         5.57764357788814    0.17766149855584    4.59673002185720
H         5.43586339930601   -1.53581898407765    4.07701720284191
H         3.08955082623524   -1.54740482473928    5.06276611687405
H         4.39612225851489   -1.41459956648230    6.23075951329862
H         2.69064779325959    0.10961325245298    6.91944966685248
H         4.07280205209751    1.06746493060802    6.33030730876808
H         1.21010057574417    3.98619338707007    5.06067189123150
H         0.42218599896297    3.55712589099141    3.51250152673084
H         1.76872569717404    6.51660870064786    5.37724569895266
H         0.71639000208339    8.74442253518488    5.33859627672798
H        -1.27711792261619    9.14273367323413    3.94095146815850
H        -2.21241098028646    7.30950980793667    2.58158219361211
H        -1.16168644059264    5.08710868898959    2.61736256204824
H         1.35576566642440   -0.61091121022992    3.89250515049451
H         0.18467255240770    0.71920588165204    3.92394758492393
H        -0.48920787627627    1.46770810084611    6.41256298485936
H        -1.57876876040256    0.54489384661501    8.41870871469727
H        -1.46687493301152   -1.87654534422046    8.87996091460470
H        -0.27014105525943   -3.36908816527425    7.32316934381035
H         0.81108643847406   -2.45273320207817    5.31986740175476

