62
CSD_code = TUDXOF | q = 1 | S = 0 | Stoichiometry = C23H32Cl2RhS4(1+) | MND = 6
Rh        0.18181237771586    3.19399434524144   14.64610927306114
Cl        0.69855761887334    3.19514181193190   12.36213357776287
Cl       -0.16182817272990    3.19333121087771   16.94557117076166
S        -1.54533086194734    1.58980909951102   14.31652265852324
S         1.65974095511717    4.98023048027521   15.04863937915334
C        -0.99174816792879    0.25143657653531   13.21236250178261
C         0.22401494082957   -0.54344059392133   13.66039230703366
C         1.51946306649637    6.13434851227171   13.63538685458741
C         3.37850741530727    4.45927946360745   14.72822550001830
C         3.76482053908892    3.19265309227333   15.47830008558094
C        -1.82733973822139    0.68558298146970   15.88166223037288
C        -2.75790009679920   -0.46363652511498   15.66223811848855
C        -2.37402338536338   -1.75869493421330   15.98504034420324
C        -3.24723852494689   -2.81484062708082   15.78793974035824
C        -4.50510652436660   -2.58672632748570   15.25724956257427
C        -4.89328373054694   -1.29714578690734   14.93069709671629
C        -4.02478875222170   -0.24072880168217   15.13242830075432
H        -0.80575018834605    0.74304135191591   12.25721579074389
H        -1.85651581405821   -0.40547261644243   13.11348489274605
H         0.06093470462085   -0.96446089623901   14.65353609743664
H         0.33202416425480   -1.38169137297009   12.96697257972489
H         1.60361532147074    5.55197712692113   12.71654193665284
H         2.37261648296554    6.80581599881909   13.73213386678946
H         3.99276833420607    5.29707039828121   15.06034449254255
H         3.49132098712116    4.32927596084492   13.65125181066714
H         4.84939101585631    3.19232832048329   15.60812009248469
H         3.31446409840239    3.19264654409152   16.47438321458403
H        -2.26555642718387    1.43748350457282   16.53892452333491
H        -0.86821374393832    0.38001848358076   16.29726524465438
H        -1.39914222030622   -1.94251054953034   16.41436969817055
H        -2.94317595098226   -3.81622698796971   16.05089044724163
H        -5.18377210550237   -3.41083621469260   15.10252313022642
H        -5.87498982171723   -1.11437035993723   14.52185425594324
H        -4.32449866837350    0.76630639343108   14.87982856744814
C         1.51808906284563    0.25258623871774   13.63441259615573
S         1.65861038721444    1.40629056572192   15.04799246599542
S        -1.54527919414859    4.79818830903391   14.31603236039065
C        -0.99030539321780    6.13696254690749   13.21306910831080
C         0.22577018184952    6.93100302287547   13.66178955553698
C         3.37767953924837    1.92648394910087   14.72785190742466
H         3.99151741216981    1.08827145017170   15.05969781895878
H         3.49061915076545    2.05675446815443   13.65092323961434
H         0.06280544164252    7.35137784290416   14.65523048579568
H         0.33422142831595    7.76972656868044   12.96900279600554
H        -0.80438071488717    5.64597142549473   12.25759189548707
H        -1.85470089813062    6.79439276171720   13.11447688171933
C        -1.82776051846066    5.70181708503991   15.88143320108659
C        -2.75860806923638    6.85073101608710   15.66170901912350
C        -2.37525702453243    8.14598341519388   15.98437131214708
C        -3.24880690353798    9.20177368461938   15.78685314786323
C        -4.50645064010345    8.97311331117456   15.25585440517337
C        -4.89406719185420    7.68334631957796   14.92937347256002
C        -4.02525304127141    6.62728073641440   15.13154744440220
H        -4.32448865571286    5.62010096813848   14.87896285985131
H        -5.87557529846527    7.50015115827001   14.52023871535127
H        -5.18536543980199    9.79695623656101   15.10080493606092
H        -2.94523540406329   10.20331000005486   16.04977507580758
H        -1.40057285751929    8.33020976404352   16.41396232243148
H        -2.26605780188927    4.94965413335022   16.53832961405429
H        -0.86891228962259    6.00758531176900   16.29753314302140
H         1.60255340495619    0.83524668233139   12.71579750394585
H         2.37096220056497   -0.41925803486766   13.73094337259800

