68
CSD_code = TUDYAU | q = 0 | S = 0 | Stoichiometry = C29H35Cl2PRu | MND = 9
C        -0.39956365585896    4.59307388538903    3.70008611223665
H        -0.85630643369383    4.57943999025461    2.70456608387385
H        -1.08634221113941    4.07961048826251    4.38063198622689
C        -0.11058236935046    6.01982309852358    4.15821728537441
H         0.54080980178386    6.00986096994266    5.03494484596516
H         0.40646540814001    6.56772940872310    3.36727184626923
C        -1.41086965971480    6.75323957405068    4.50608108704790
H        -2.03578975040728    6.81328361976345    3.61400780161065
H        -1.95787069237212    6.18656547673136    5.26129146725743
C        -1.12183344691455    8.13842684049058    5.01614853178666
C        -1.29945540336115    9.20642391146384    4.23867037843087
H        -1.08240403607136   10.20405411287419    4.58262157329359
H        -1.67655898037303    9.12095837363965    3.23380827639922
C        -0.61453258515870    8.30126724394575    6.37242685310389
H        -0.36875725125040    9.32213235970431    6.63943862449813
C        -0.44380423287079    7.34335516405674    7.27671078448250
H        -0.67734368993667    6.30976456979965    7.08952253491454
H        -0.06481656625640    7.56655619503644    8.25971713991921
C         2.00284494274894    0.42277529581347    1.22721163312365
C         1.06548946337183   -0.54061011731508    1.70246939932850
H         0.37936729472826   -0.99738822665502    0.99639682698873
C         1.05095864667246   -0.92487374424302    3.04116003943210
H         0.35435204505189   -1.68564833808743    3.37820799745226
C         1.97893973521382   -0.37446165528705    3.97376127455692
C         2.92386882903405    0.55120498110804    3.50229752367220
H         3.69782690722217    0.91741725659687    4.16608430618354
C         2.92867638812389    0.95692704271427    2.13990069658360
H         3.70281413235683    1.63117351825493    1.78622407297702
C         2.01730583216577    0.78418121814624   -0.22682840197472
H         2.79715388849401    1.51132964057166   -0.44266748948795
H         1.05178073443521    1.20847872205798   -0.50853155606827
H         2.18298031032432   -0.10618772019869   -0.83400541031061
C         2.02135737096641   -0.90778743850768    5.38582472768049
H         1.08109294896313   -1.43774509320773    5.57471791264189
C         3.17616374961906   -1.90950797334520    5.50159386926956
H         3.18718432662389   -2.34836788419848    6.49615613582416
H         4.13039710622839   -1.41388767518241    5.33275439088581
H         3.06928963390858   -2.71019342784813    4.77184134300335
C         2.14603570273867    0.20011227839324    6.43032020844828
H         2.06799867496476   -0.22449293679867    7.42796626044503
H         1.34230540585835    0.92175073605946    6.29836358482191
H         3.09888528958605    0.71905673902588    6.35532749736499
C         2.13460435061787    4.54142016290124    2.44926321588134
C         2.02601052832564    4.25708147225365    1.09161756551617
H         1.35827954336966    3.46493805241123    0.77736108891747
C         2.74003735241202    4.99524886711570    0.16525726203200
H         2.65114538223501    4.77189983347522   -0.88786772096301
C         3.56530893246303    6.02430976870104    0.58923394389714
H         4.12800274350114    6.59965577906869   -0.13119764544120
C         3.66108519406869    6.32313431251286    1.93882446851698
H         4.29254065569844    7.13533898023431    2.26865484858276
C         2.94658305512259    5.58966817177967    2.86962483426036
H         3.01910594875350    5.83398728511678    3.91965641572147
C         1.92382617607779    3.67776583002636    5.19038868803979
C         3.31139523226204    3.58583924634682    5.26779603527106
H         3.89101439100021    3.50686543248123    4.35703696596507
C         3.94413808471047    3.60421450072617    6.49690444905387
H         5.02186576117770    3.54037985580054    6.54963333165926
C         3.19700932098156    3.70065820590057    7.66013505949055
H         3.69300922456754    3.71556663205245    8.61932211494132
C         1.81522189803643    3.76451890990951    7.59048151933904
H         1.23197278989557    3.82216116365908    8.49738369962575
C         1.17753910345996    3.74665887041061    6.36302640055704
H         0.09972820089939    3.75681882915274    6.30933304577681
Cl       -0.78188712123627    2.14983656061764    1.47075551383664
Cl       -0.73761809592613    1.44718418248292    4.68897205713621
P         1.10587221183742    3.54794843478180    3.57608194562015
Ru        0.86649553111817    1.36248017955430    2.96031084123720

