50
CSD_code = TUDZUP | q = 0 | S = 0 | Stoichiometry = C24H21ClN2PdSe | MND = 4
Pd        5.15412993141494   10.05026411329853    6.03462876103803
Se        7.42620273469729    9.93736278945502    6.21225237474152
Cl        5.50998723095118   11.00948672098947    8.14217277333058
N         3.09549789092633   10.21613012895187    5.63559134235363
N         5.83317750024684    8.06941597722326    3.76624300632082
C         2.74320761895119    9.61157043001003    4.54841265297330
H         1.76679447053672    9.79087858388156    4.09516127276791
C         5.00749611027968    8.89027995779902    4.45396343324516
C         7.55345571101794    8.33556288724062    7.28292952836968
C         5.10549437238373    7.39667816938840    2.79606653484433
C         3.37749737482424   12.50497903595676    6.23992362214553
C         2.81305147462196    7.29650144121608    1.99772265283159
H         1.78124764881764    7.61085643472187    2.04897675443437
C         5.50914243260659    6.45712746561713    1.86171745131669
H         6.53372602293614    6.11990573997130    1.79937845170038
C         7.21997228396583    7.82830577269369    4.09341556852212
H         7.70230096408924    7.38657040001832    3.21539754361855
H         7.28092324518136    7.09730749991395    4.91495532624862
C         2.38445794707922   11.36052592428127    6.13967305447207
H         1.99557179369477   11.14002626817630    7.14141812964642
H         1.54116979301346   11.62839864133579    5.48285383157564
C         3.36100156154673   13.37011939621939    7.32403341236035
H         2.59907161336923   13.26116133383022    8.08235601618532
C         8.80348193128873    7.89155413323251    7.69455943434152
H         9.68763778690285    8.45099691459680    7.42050398841577
C         3.75432687219659    7.82355385281854    2.87418999173231
C         5.33896089689639   14.46401601253354    6.51707916591447
H         6.11273446857545   15.20734985861835    6.63994379390508
C         3.70804421971126    8.77024023459154    3.94726810876260
C         7.76210722254577    6.04390172149913    8.81505942265463
H         7.84286730877565    5.15073383011235    9.41635222063507
C         4.37746237465769   12.64689318722505    5.26850029532207
H         4.35545671165850   12.04650042941145    4.35286405970395
C         5.35620452216694   13.62046766984175    5.41840779861898
H         6.13001925179303   13.72139157466342    4.66919585191199
C         6.40345773680725    7.64141773775839    7.64332441070213
H         5.41274410457446    8.00971732223573    7.33665074829116
C         7.99057653200464    9.08703401813932    4.48302341683936
H         7.85380922572028    9.87055990279899    3.73263125646290
H         9.05254606590249    8.84611582455555    4.55705271952461
C         4.55415609904817    5.95185829210976    0.99905152119010
H         4.84360292929902    5.21963919031240    0.25995377099528
C         4.33100366451644   14.34878800415248    7.45737480218109
H         4.31298891388496   15.00558053062820    8.31433661497849
C         3.22578454963509    6.36579925483474    1.06614137227079
H         2.50918473315712    5.94581206294147    0.37574899213556
C         8.90441877812147    6.74171451924294    8.45781292601237
H         9.87478998275074    6.39495617116584    8.78077296328383
C         6.51566136471212    6.49460711217307    8.41077025730439
H         5.62589402555476    5.95328552560036    8.69608660084507

