50
CSD_code = TUDZOJ | q = 0 | S = 0 | Stoichiometry = C24H21ClN2PdS | MND = 4
Pd        7.27953187333457    0.38985740599464    2.27635202922353
S         6.45319010675444    1.33770691640522    0.36927865995753
Cl        5.82386467938201    1.63836805633177    3.55713211608160
N         9.28684276508375   -0.43059016442221    0.05799047179535
C         8.74774956843358   -0.48713945362846    1.29673541655043
N         8.09794314757316   -0.70283514183533    3.79832766358149
C         8.76636048762832    0.37244446934928   -1.02028853725820
H         9.09609174403554   -0.06336813848718   -1.96933462419468
H         9.17353765685567    1.39338822840078   -0.95713099933218
C         5.14343402238736   -3.94163630171144    5.62447205744874
H         4.99237192773036   -4.69646769719868    6.38245702846328
C        10.45936261960760   -1.17010404929213    0.02834748808341
C         7.87064618158178    4.92930855271475   -0.80306344807383
H         7.69302481274076    5.61967124696579   -1.61367483124549
C         9.12828816335955   -1.40532462294522    3.45201608406919
H         9.60722354971816   -2.08097923567935    4.16026356712970
C        12.66344829768821   -2.74442673369137    0.51060308508232
H        13.53640579764759   -3.35940185630239    0.67276768409559
C         7.24196564266299    0.43485500942863   -1.03327511632030
H         6.81367780670318   -0.56766931380134   -0.98671465914565
H         6.90868774308517    0.93108189982789   -1.94497289927895
C         7.39104110078905    2.86109006757992    0.30132014103659
C         8.31577574838411    3.15957028578959    1.29381904049534
H         8.47590091076991    2.46156623346440    2.13014109765461
C         9.01739782389889    4.35156795835687    1.22712239401659
H         9.73467595839897    4.59216222966190    1.99687873892068
C         4.55964164999941   -2.96150729722197    3.52012244628456
H         3.94545936772563   -2.94901964041974    2.63146708230360
C         6.12608800596525   -2.98228201724721    5.79600930814471
H         6.73566536125695   -2.99288263437844    6.68888085086060
C         7.15793185822292    3.74482264952782   -0.74174320194555
H         6.41921826536810    3.50803244888192   -1.49268040836171
C         6.33205641134024   -2.00122806407863    4.83572047021868
C         7.40562128637402   -0.95095242135657    5.03768096661229
H         6.92917113474277   -0.01406248860474    5.35506245629975
H         8.10569257395331   -1.28393743942180    5.81635649841147
C        10.66775719037129   -1.72437996955552    1.31776579510412
C         5.53880090435552   -1.99938351468417    3.69151707142226
H         5.66841116907623   -1.22153455345560    2.92198781928156
C        11.78469528901962   -2.51828695327624    1.55061978738066
H        11.95786176608646   -2.94682080768074    2.52636096369986
C        11.34858514608098   -1.39666968601543   -1.00842291156314
H        11.19900880723867   -0.96925313931279   -1.98946448950806
C         8.79962557121411    5.23187527075730    0.17944834483087
H         9.34987928802196    6.15934741615118    0.13221312937194
C        12.44988805090963   -2.19188779798406   -0.75016300287662
H        13.15942268868315   -2.38614590229223   -1.54060456018102
C         4.35894823316077   -3.93484025717169    4.48478721052118
H         3.59243152319586   -4.68350581814743    4.34922599627395
C         9.57119832138380   -1.26739323426430    2.11728272859040

