33
CSD_code = TUFDII | q = 0 | S = 0 | Stoichiometry = C11H13N2O5ReS | MND = 6
Re       -0.18359465915331    1.67261743422609    4.45155288571056
O        -1.30846358248713    1.37954770092452    2.60394358029623
S         1.29192491471121   -0.04763169094766    3.23084202290455
N         0.78538001140436    2.93501472378267    2.99561337097240
C        -1.13964057198832    0.30359953244452    5.45109514282537
C         1.10258159604357    1.95625556995641    5.87483866505094
C        -1.35091139836784    3.06936140682397    5.14068905072665
C        -0.81446448184689    0.78261428237890    1.61904504812489
O        -0.91892858803743    1.05927282790680    0.43774334680283
C         0.06577975496016   -0.47613462214642    1.97790766542722
C         2.28233395879283    1.15822678275344    2.27018797123710
C         1.54878077112290    2.44115962034883    2.07766473631195
C         0.82494737222112    4.36922545496617    1.10242699898999
C         0.22538764684863    4.18840003696007    2.50888032505435
N         1.65722749446603    3.18478302522106    0.96593660877611
C         2.38974025490347    2.89641709686217   -0.23719418716525
C         3.86820867920879    3.26182301746042   -0.11550454560016
H         3.97992526397333    4.31894855800355    0.11328904043336
H         4.37705668224452    3.05515429707907   -1.05275922608006
H         4.34694302146428    2.68641022700438    0.67385233376413
O        -1.69876635085469   -0.55711868435954    5.95250499667418
O         1.92819340754943    2.10101167175755    6.65859253567134
O        -2.04990774461861    3.90324871424856    5.49875730765042
H         0.57393647672821   -0.87730943918717    1.10060864453918
H        -0.56892988444062   -1.24357969159812    2.42521747755012
H         2.54825848029997    0.68872999723033    1.32345130408921
H         3.18557296896008    1.32706184187367    2.86189729351012
H         0.05883939628946    4.37755987438101    0.32124374564460
H         1.43333119944465    5.27503294110256    1.01490821641425
H        -0.86495703173446    4.10881662630697    2.48478888711309
H         0.49835281326177    4.99185348536794    3.19877209677269
H         2.27841125949816    1.83750610462400   -0.49118419409944
H         1.92865086913288    3.47412127624302   -1.04130914609286

