73
CSD_code = TUFGAD | q = 0 | S = 0 | Stoichiometry = C32H28N6O6Zn | MND = 6
C        16.05128982016032    2.99713688165863    3.62548244651315
H        15.49655648986563    3.62285586587138    4.29516009096977
C        16.21769936283815    5.58505953107950   -0.81121813864371
H        15.19719353011390    5.79642429724504   -1.05958303887491
C        16.84181651667703    2.14323273916290    1.81356264170040
C        17.98118549347777    5.08230653767352    0.31773454909520
C        17.38226846442543    1.43876669976118    2.87317347323411
C        18.37366992121719    5.29123008341973   -0.99122135102238
C        17.11262798133968    1.61229132268345    5.36896392088470
H        17.96368816615208    2.16143417636084    5.77736220981765
H        17.32661740839051    0.54476431964238    5.41150752809882
H        16.23375738711237    1.83113438996507    5.97344933882743
C        17.12201699967515    5.92879398096745   -3.07969165972110
H        16.92857429560405    5.02859673347735   -3.66690021854212
H        18.04755458601226    6.38654797481149   -3.42751272273277
H        16.29621202264680    6.62366982595309   -3.22454415627057
C        17.11030285847237    1.97745096645946    0.38931239394405
C        18.80004449047257    4.67269714625525    1.45337892205846
C        16.14113077071546    2.28312805200912   -0.56312227523070
H        15.16495318664410    2.61362207703495   -0.25204502186579
C        18.47067128937544    5.06148425736396    2.74967510264285
H        17.62296643972862    5.70259528920527    2.92110190515337
C        16.41993939242606    2.15583908077790   -1.91175194582064
H        15.65422970453460    2.39519141866065   -2.63524792355005
C        19.23203361737236    4.63624337842691    3.82305314216156
H        18.96188914066675    4.95003518931308    4.82082514190001
C        17.66265463089835    1.71349288809739   -2.33200179164664
H        17.87589076172413    1.60497240949892   -3.38613779684101
C        20.33703913856777    3.82690985405361    3.62155613858714
H        20.93664868712091    3.50295128388639    4.46061565102938
C        18.62800801689940    1.39290210217032   -1.39101445482784
H        19.59960859923135    1.04437604319219   -1.71010075132949
C        20.68138671216100    3.44842883404479    2.33378053646650
H        21.54411088573097    2.81969537645241    2.16729227051414
C        18.35624926515383    1.52071859029646   -0.04285592253965
H        19.11584367632935    1.27645439271799    0.68294102050702
C        19.92322363711866    3.86788676870412    1.25811217663324
H        20.19325683622248    3.56239360994093    0.25952792887502
C        18.26352675254059    0.27409853236571    2.88380038606564
C        19.70323131647830    5.27375423408287   -1.59518266704694
C        17.94431072765245   -0.83951882156033    2.10788238103115
H        17.04709844862898   -0.82433068076356    1.50772882284710
C        20.73887345742537    6.00032926578933   -1.00909098892623
H        20.54269381562458    6.56917682066652   -0.11280386354269
C        18.76848667926321   -1.94829976796584    2.10885062498777
H        18.51168506927183   -2.80702093803901    1.50703007996533
C        22.00109380218644    5.99031353929555   -1.57078072209290
H        22.79626344673746    6.55787279332854   -1.11129154533848
C        19.91906596632053   -1.96150920487171    2.88140804302222
H        20.56130831004207   -2.82924168522706    2.88118208690558
C        22.24697923863584    5.25795030927007   -2.72144894510711
H        23.23385953206351    5.25222943268250   -3.15902563129461
C        20.24492483203026   -0.85719715533955    3.65028812770592
H        21.14463520707260   -0.86054503382903    4.24769652234127
C        21.22450257554450    4.53014280228202   -3.30599395362637
H        21.41359500279727    3.95200914199830   -4.19839937215580
C        19.42276029848628    0.25523902809394    3.65533629358928
H        19.69311314239345    1.12502522882016    4.23461523460926
C        19.95817661648495    4.53745339699846   -2.74953913635850
H        19.16992776548561    3.94718980215287   -3.19150173844981
N        12.93158349326257    4.01621463380440    1.32909340542952
N        16.86269727891126    2.00483714153652    4.01048857001530
N        17.23194129956714    5.60828941834206   -1.68419530822213
N        14.79753384469721    6.91780388422797    2.69374639854734
N        16.01448580773361    3.11125063590202    2.31773035048489
N        16.62722906059536    5.27227648052361    0.39666314932931
O        13.74767294691184    4.14175044385298    0.39263289967564
O        13.34926564526451    4.24860756581881    2.47248396939510
O        11.80917144640646    3.65840962930669    1.12560405051457
O        15.47714294091354    6.01949858235176    3.23196051091808
O        14.37229593966142    6.69187441726399    1.55174351038380
O        14.59688246166663    7.95694701916083    3.24970719363296
Zn       15.13697564796992    4.80880473937952    1.67216190061319

