53
CSD_code = TUFNIS | q = 1 | S = 0 | Stoichiometry = C26H18Cl2N6Rh(1+) | MND = 6
Rh       12.96347469018296    1.65906868017104    3.18118592546801
Cl       13.08864523828967   -0.48756846617776    3.95974086181059
Cl       11.71384226608108    0.95854701816696    1.39784299865561
N        11.17487259860980    1.99779661890522    3.98873326209823
N        12.58777971728753    3.54837620299497    2.43774587826561
N        14.70107014448083    1.19118114106364    2.32778911203772
N        14.25152522837872    2.08047419385019    4.73881814974943
C        10.56056808475192    1.23322137837499    4.88474894724946
H        11.16227932104998    0.47904832127685    5.37559038301839
C         9.21136194622289    1.36536889854342    5.16897834623183
H         8.75192394272648    0.71518423214963    5.89514477795989
C         8.47379554679115    2.32577953021380    4.49374178721165
H         7.41724142757178    2.44132283742914    4.67723106090341
C         9.11615190036831    3.13696610889045    3.57425412574312
H         8.56713769718361    3.89492291524671    3.04112787822141
C        10.47531097538766    2.95158695102704    3.33542003150001
C        11.27248411598478    3.77530990275794    2.43104574261802
C        10.72860633125189    4.77446026777744    1.58442149016118
H         9.66391027307943    4.94614664537741    1.53782414601001
N        11.46207238201063    5.49166188041371    0.79165048445765
C        12.79524041454723    5.33235131006923    0.83761491229675
C        13.61925175393463    6.13745347719568    0.02902116439433
H        13.14023339565691    6.85456288064377   -0.61771562498647
C        14.97966687351054    6.00843066387637    0.09503527776482
H        15.61521533658955    6.62557776258915   -0.52027880796697
C        15.56393516588402    5.08877344801983    0.98195543392552
H        16.63964496724781    5.02970299652342    1.04683817500628
C        14.78978891871627    4.27846659406429    1.76881293518406
H        15.24256753839306    3.59628103881562    2.47349646217967
C        13.38643608112008    4.35495839930461    1.69957683871194
C        14.88842337301395    0.87473941264492    1.05125050903838
H        14.07518529795971    1.09313199869218    0.37099134365317
C        16.05143420626835    0.27138210260891    0.60176054427611
H        16.15516522621253    0.02101747892794   -0.44121153438914
C        17.05468400655827   -0.01616705869646    1.51454002391932
H        17.96418729560322   -0.50377147269203    1.20082621942518
C        16.87006815740189    0.33139257088029    2.84163911603585
H        17.63687532253446    0.12472689113171    3.56926852143254
C        15.67658066759582    0.93604219509103    3.22733993347568
C        15.38614827288363    1.39507677369059    4.58258574728794
C        16.23297076642852    1.16032194024475    5.69554797709379
H        17.13526081240511    0.57628382308012    5.59574000579694
N        15.95029612238394    1.58249933304055    6.88826455013153
C        14.85195651544445    2.33818102925615    7.05389109170333
C        14.55216614853692    2.85775841530372    8.32717248542460
H        15.21934076515493    2.61364747920348    9.13791301393547
C        13.45633023303558    3.65855905439897    8.49931059554772
H        13.22412852532935    4.06136491323640    9.47260677153897
C        12.63554302664354    3.98388624975036    7.40651287744557
H        11.79796593624009    4.64803884698921    7.55576014192004
C        12.89013155351573    3.48066140977399    6.15870387736159
H        12.27669876140851    3.76010462604469    5.31460431566150
C        13.98562473414845    2.62230815784913    5.95088971639870

