45
CSD_code = TUFPIU | q = 0 | S = 0 | Stoichiometry = C16H20N2NiO6 | MND = 6
Ni        0.00000519250727   -0.00075845919570   -0.00078188954884
N         0.21438301442441    1.85640515822580    0.07388486106059
O        -0.86832732729471    0.71490095364162   -2.16347265426219
O         1.79868921926206   -0.20606429127524   -0.71404819574555
C        -1.19971842601028    2.04786163383373   -1.90245767788531
C        -0.36697126152233    2.67163828171336   -0.80464051861895
C        -0.22216010776264    4.05211253966924   -0.71102245407127
C         0.53840488488427    4.58674330246586    0.31151223392246
C         1.14140647915567    3.72265273994604    1.21456218557949
C         0.95421908951680    2.36174115358702    1.05866429788077
O         1.69639355492703    0.79013028025329   -2.70343195567666
C         2.30344327854785    0.21895575156686   -1.79056649964340
C         3.80145398528612   -0.03928551309758   -1.94048410604209
H         0.07931078267649    0.71283786063906   -2.50729697228652
H        -2.24771513086803    2.05449567333571   -1.57550767563409
H        -1.11134040126402    2.65902608954533   -2.81273591363855
H        -0.70171574156060    4.68786849436576   -1.43911440118038
H         0.66448846127216    5.65529195272044    0.40158001788548
H         1.74689896838514    4.09607277997446    2.02466796289924
H         1.40398600340381    1.64411202070635    1.73475180432436
H         4.25577178102226    0.76871600894427   -2.50647042356862
H         3.93437178551197   -0.96846812842242   -2.49102272477969
H         4.26521002621093   -0.13400501466271   -0.96333748807976
N        -0.21542492564559   -1.85765741643828   -0.07604920922928
O         0.87219418249525   -0.71802897294948    2.16005260485568
O        -1.79784452299253    0.20560894536812    0.71468713951784
C         1.20203751928673   -2.05110190790577    1.89762021142498
C         0.36633783645596   -2.67375538464578    0.80140158243672
C         0.21917434011954   -4.05400612224449    0.70811246065837
C        -0.54436999057500   -4.58748592836956   -0.31281345135327
C        -1.14780111382339   -3.72248535473406   -1.21470583207683
C        -0.95800384097907   -2.36188236787317   -1.05934140366915
O        -1.69167023670053   -0.79002522956840    2.70420884803096
C        -2.30002672279669   -0.21696153361991    1.79338760704404
C        -3.79704043964529    0.04434862042896    1.94780631547895
H        -0.07481727442276   -0.71532283327490    2.50547965467087
H         2.24926290883657   -2.05827145441569    1.56824782489960
H         1.11534711289372   -2.66264522237942    2.80780250802540
H         0.69917161545187   -4.69050030084122    1.43526663273818
H        -0.67245109030676   -5.65583150467334   -0.40249113807384
H        -1.75561185889226   -4.09496136456162   -2.02350960139063
H        -1.40786333963080   -1.64360467194262   -1.73468002012745
H        -4.25142511422538   -0.76231212469992    2.51567163372370
H        -3.92582879445748    0.97406025015934    2.49843448489801
H        -4.26383436115759    0.13984061069927    0.97217933462702

