61
CSD_code = TUFPIT | q = 0 | S = 0 | Stoichiometry = C22H34NiO4 | MND = 4
Ni        6.85632420262300    2.47636722794702   -0.00040626251310
O         8.00978382213443    1.45565391830871   -1.00890005019464
O         7.30479389316806    1.50230174123803    1.49581424367974
C         8.19152174291654   -0.00690124849928    3.05125137789366
C         8.11504147115634    0.53990388195066    1.64302558575472
C         8.89003929439470   -0.02762676747193    0.61847964962432
C         8.76861830147543    0.49672775033498   -0.67860344899375
C         9.56335756397664   -0.09701107492804   -1.82057974264081
C         9.85926766984223   -1.14534536133795    0.91257504445774
C        11.24612423266785   -0.61378688820115    1.29651394075637
C        12.22193404651057   -1.74772323073714    1.59785770252350
C        13.60672414572115   -1.22240130251460    1.98846855480892
C        14.55720692458114   -2.34558525934845    2.25235973844990
H        14.72167012989743   -3.01504032193613    1.41729395574055
C        15.16484485419236   -2.56007340058678    3.40363302232006
H        15.01820955202708   -1.90987378087705    4.25084069095125
H         7.57621084170782    0.61554819272140    3.69538135975569
H         9.21425428920873   -0.00672799338046    3.41644435006981
H         7.81164687250738   -1.02621523270696    3.07746117296791
H         9.37916084102110    0.49626293332716   -2.71223247139616
H        10.62647478446917   -0.09748688585616   -1.59888701790227
H         9.24438032429724   -1.12076872242673   -2.00538445131205
H         9.95849977438645   -1.79214835826661    0.04072322964769
H         9.48082994367041   -1.76264275526617    1.72745207684863
H        11.64077727027916   -0.00129676631378    0.48323092532511
H        11.15995260718288    0.03326055106316    2.17160989440238
H        11.83011985271178   -2.35942388894454    2.41404753278071
H        12.31460570903013   -2.39023824157191    0.71886055333318
H        13.99482403309224   -0.60867945887991    1.16986808802981
H        13.52323809505057   -0.59044464321627    2.87471793861178
H        15.83963204092967   -3.38637539009910    3.55018001041839
O         5.70308191924464    3.49728656935355    1.00813218836410
C         4.94585809650878    4.45762838836678    0.67824940445201
C         4.82569875447182    4.98308413713677   -0.61850672205057
C         5.59960583446381    4.41456309105350   -1.64332983304158
O         6.40818630111983    3.45070029763853   -1.49654163907641
C         5.52383743760877    4.96189468438467   -3.05138493316328
H         6.13765952492050    4.33833598231565   -3.69586107122766
H         4.50100139871904    4.96398656887164   -3.41627207872531
H         5.90585649424470    5.98041141780661   -3.07743122608047
C         3.85934408229726    6.10347375480146   -0.91189446655747
C         2.47103969485647    5.57630828950689   -1.29662276111252
C         1.49886532059905    6.71354506101774   -1.59732269337830
C         0.11250573262231    6.19308025103293   -1.98887395726626
C        -0.83445985844776    7.31945051259544   -2.25192269952006
H        -0.99671233038146    7.98882541280184   -1.41638226031245
C        -1.44084773535179    7.53716643859814   -3.40325672759136
H        -1.29486789383145    6.88812807672240   -4.25150680873202
H        -2.11164160601108    8.36664118620415   -3.54968175581516
H        -0.27783467735908    5.57990146130808   -1.17094763510203
H         0.19421406700216    5.56165460745963   -2.87566325141656
H         1.89290184980712    7.32476431938851   -2.41280393433595
H         1.40792842832405    7.35553479843131   -0.71776006862245
H         2.07427308761091    4.96441571353273   -0.48392363025915
H         2.55545349876307    4.92968772430271   -2.17220142845986
H         3.76168812651969    6.74980507028268   -0.03950826631896
H         4.23965297404671    6.72045320526580   -1.72615025042027
C         4.15156303270222    5.05171930302114    1.82034843364672
H         4.33417390288497    4.45725606337975    2.71153473333686
H         3.08857659765399    5.05438370522712    1.59805706702044
H         4.47232881756144    6.07470468466735    2.00633107756705

