73
CSD_code = TUFPOZ | q = 0 | S = 0 | Stoichiometry = C26H42NiO4 | MND = 4
Ni        1.17163853791523    4.07815600513554    8.39155336482342
O         2.25219375537704    3.04072573121504    7.32094886570724
O         1.97687776787248    5.59652836075541    7.73189498584449
C         3.82769690260954    2.20220609699987    5.80483344592795
C         3.14622024880594    3.36852826153569    6.48560782523468
C         3.53048286689145    4.68611735309787    6.18874163347494
C         2.89012259380211    5.73690323035021    6.86545985701070
C         3.28905768013024    7.17179162712598    6.60059106460404
C         4.57192491202966    4.96882025052077    5.13503551686816
C         3.94453746977912    5.12887104980720    3.74451281588052
C         4.99309190129789    5.43898239956255    2.67954223711563
C         4.37014892799851    5.60487584566196    1.29558080307118
C         5.41534529669363    5.92604329473161    0.23082678745945
C         4.78460682575794    6.09910653755193   -1.15420312480227
C         5.82129576807639    6.39988272104549   -2.18809281034923
H         6.58373329961790    5.64080809692923   -2.31020851543164
C         5.86057296651279    7.50130375826538   -2.91332120594577
H         5.11591069495287    8.27390229134144   -2.81013031132135
H         5.52183592333528    6.35657291036068    2.94890324429958
H         3.84641304976257    4.68538852906299    1.02263626289735
H         5.93980724910678    6.84565644311216    0.50085725547892
H         3.41404919324895    4.21334047016423    3.47557545171821
H         5.30113008409353    4.15931107946170    5.10241594361759
H         5.11622513305663    5.88011109915121    5.38307354188674
H         3.20478620178211    5.93140904448297    3.76835376014138
H         3.20994463564415    7.41110633289030    5.54424158880417
H         3.33962656059421    1.28519535273399    6.12392586956063
H         5.72943167680569    4.63211962307835    2.65033038971012
H         6.15452308664101    5.12229001891622    0.19367884210768
H         2.63060312320038    7.82215154759849    7.17016288353106
H         3.76461979216854    2.28926020560982    4.72416271693551
H         4.26659032114139    5.17359803305831   -1.42342965866174
H         4.31533390724898    7.33974500300057    6.92076210478483
H         3.62964120509278    6.40768991793376    1.32788942462182
H         6.63129363151066    7.67903208651021   -3.64404437762545
H         4.04698099274975    6.90338504487165   -1.12301209482338
H         4.87657084924896    2.16275456163268    6.09156288999130
O         0.09103206878781    5.11558171550563    9.46210609958312
C        -0.80281110179981    4.78776673507389   10.29763372080689
C        -1.48421884365973    5.95408395105421   10.97848372169632
H        -0.99636499473596    6.87112319706835   10.65914190967090
H        -1.42079617710032    5.86715786483321   12.05914364786273
H        -2.53318475239501    5.99336312370295   10.69207143406756
C        -1.18690499817238    3.47016651941850   10.59466706454602
C        -0.54669240839316    2.41939094500994    9.91779038978238
O         0.36636434953957    2.55977921488170    9.05115760072499
C        -0.94551279260697    0.98449025853999   10.18279469223588
H        -0.86601451282658    0.74515171721412   11.23911187984555
H        -0.28725578636491    0.33414744787625    9.61297597496411
H        -1.97190353092696    0.81652552019723    9.86299569617462
C        -2.22793752314342    3.18745049847906   11.64877509527205
C        -1.59997201120424    3.02756460048184   13.03905872417282
C        -2.64804042857682    2.71752790440872   14.10453035083668
C        -2.02442625501914    2.55186328852936   15.48821869863267
C        -3.06908977142103    2.23079260522449   16.55352669764749
C        -2.43765205821933    2.05795223895505   17.93826532762678
C        -3.47386768165015    1.75719332580251   18.97264404172886
H        -4.23623184292792    2.51634787900534   19.09509982883321
C        -3.51270986902522    0.65585233997315   19.69804417407985
H        -2.76786237135741   -0.11646539784753   19.59485762040201
H        -4.28282552343200    0.47846978319338   20.42951084087754
H        -1.91952843530954    2.98352068639991   18.20710839734579
H        -1.70001112847329    1.25369373007627   17.90682028101856
H        -3.59363571562004    1.31110998007553   16.28388794470518
H        -3.80829480391985    3.03451129037389   16.59092520721145
H        -1.50062033467444    3.47142253357007   15.76078490236713
H        -1.28388004755642    1.74909362284760   15.45566277082292
H        -3.17685126814885    1.79987053130682   13.83552605176515
H        -3.38441487576803    3.52435135650909   14.13398153574892
H        -1.06939394644468    3.94313724212113   13.30767644927105
H        -0.86020441122892    2.22504950948449   13.01497672349609
H        -2.95720005506964    3.99689899169158   11.68160737410930
H        -2.77225119371502    2.27609303370248   11.40101785592070

