35
CSD_code = TUFQAM | q = 0 | S = 0 | Stoichiometry = C12H18NiO4 | MND = 4
Ni       -0.00000004343969    0.00000003974612    0.00000007165472
O         0.97927462993114    1.03432670652431    1.16807693130249
O         0.97021664495815   -1.48480582798432    0.49871928279493
C         2.49166847372868    1.84855004675675    2.76996302747098
H         1.96311326969253    2.76382546084807    2.51903506705300
H         3.55114941699807    1.97184467804562    2.55772187427763
H         2.37800164390572    1.64412810265984    3.83203585415617
C         1.92095677308198    0.71469162330626    1.95203564850456
C         2.45225789675376   -0.57660330119850    2.10512196585437
C         1.91502108148963   -1.61686467883434    1.33328444576716
C         2.45468421125356   -3.02556275069851    1.45274618747206
H         1.90598711370799   -3.66077934224377    0.76261919785981
H         2.32186282690138   -3.40070663218391    2.46473278261005
H         3.51187519552657   -3.05280203825608    1.19993511411717
C         3.57424816957374   -0.79923473392434    3.08371087319129
H         3.87771344561942   -1.83887131723817    3.11016042188782
H         3.27032515110831   -0.51154770877312    4.08986242788878
H         4.44424716046351   -0.20005255097604    2.81582352012890
O        -0.97927768827422   -1.03432750452152   -1.16807351163958
C        -1.92096101404221   -0.71469280374529   -1.95203095687394
C        -2.49167814973335   -1.84855285298861   -2.76995240595409
H        -1.96312507569801   -2.76382883785143   -2.51902204508535
H        -3.55115894669895   -1.97184334493051   -2.55770806406907
H        -2.37801347919229   -1.64413553705476   -3.83202637547279
C        -2.45225796181710    0.57660329354545   -2.10512187779652
C        -1.91501693621191    1.61686593169404   -1.33328898919276
O        -0.97021371873857    1.48480678277626   -0.49872250339386
C        -2.45467449070104    3.02556555177515   -1.45275687523952
H        -1.90597550009976    3.66078284536547   -0.76263202988044
H        -2.32185047743730    3.40070458752498   -2.46474491134116
H        -3.51186557649436    3.05281024323613   -1.19994700223328
C        -3.57424821998079    0.79923464280017   -3.08371082513243
H        -3.87771088695776    1.83887190722430   -3.11016325708959
H        -3.27032643243707    0.51154399634159   -4.08986173866298
H        -4.44424850673950    0.20005532323275   -2.81582132493441

