61
CSD_code = TUFQIU | q = 0 | S = 0 | Stoichiometry = C26H30NiO4 | MND = 4
Ni        0.00040131852798    0.00026731455623    0.00004928471524
O        -0.13786173236217    0.16517502433439    1.82798758713608
O        -0.83252228721902    1.62884743508360   -0.20979452052998
C        -0.54269356217954    0.85243222843865    4.02995763799062
H         0.10440867109333    1.59826417297780    4.48724600136720
H        -1.52220975343022    0.90771257206367    4.49614518570005
H        -0.11820429882199   -0.13417114379328    4.19633878173974
C        -0.63590078709827    1.08749478125347    2.53868019801209
C        -1.22455558343072    2.26191053247590    2.04130446809711
C        -1.27855444212660    2.44508067562560    0.64968307363416
C        -1.88921001625139    3.70042712859169    0.06767858141211
H        -1.30396174509560    4.57119952557913    0.35597422304211
H        -2.90923030523688    3.83558467201306    0.41549381363566
H        -1.88497439366518    3.61429526017236   -1.01565195642659
C        -1.81968429763250    3.28168431993303    2.97739695846780
C        -3.30179739554529    2.98790816663397    3.28323852831843
C        -3.84828846990607    4.02752919180364    4.21667502995254
C        -4.46365996716993    5.17102543156411    3.72392102310882
C        -4.92551247545140    6.15169676118323    4.58356852553184
C        -4.77323876773599    6.00365523126015    5.95138384745459
C        -4.15827985256646    4.86941891340270    6.45344891449416
C        -3.69872459658161    3.89048979120674    5.59114573057937
H        -1.26808688943150    3.29893179621645    3.91735110777880
H        -1.74656025576311    4.27968713126589    2.54539602304691
H        -3.38962098752701    1.99722919422854    3.73211647297850
H        -3.87016315272639    2.98240236950806    2.35197311483609
H        -4.58680659413565    5.29180124198393    2.65658244778794
H        -5.40593965505767    7.03366587583494    4.18522751305503
H        -5.13363394503774    6.76824936574457    6.62367001163201
H        -4.03719109744917    4.74723208620085    7.52012093878577
H        -3.22163729536228    3.00567530727205    5.98924179953649
O         0.13868413324710   -0.16464161348175   -1.82788549494519
C         0.63638731907845   -1.08713150290663   -2.53858587558297
C         0.54316298788935   -0.85208912785770   -4.02972104498456
H        -0.10463001853230   -1.59710388862170   -4.48701349141759
H         1.52225542945352   -0.90823268052906   -4.49632185394245
H         0.11963369733272    0.13472596965860   -4.19630303108203
C         1.22480104844448   -2.26166628714725   -2.04122978203233
C         1.27896273588823   -2.44474624776425   -0.64960211536656
O         0.83318422957923   -1.62838658878190    0.20988362429104
C         1.88955099555049   -3.70013083021190   -0.06760520293188
H         1.30395663828428   -4.57079723324809   -0.35551966017956
H         2.90940276587138   -3.83562078795149   -0.41578735375097
H         1.88574229260187   -3.61380683505434    1.01571190797102
C         1.81973157486523   -3.28156374621709   -2.97731762383769
C         3.30186759103569   -2.98803029912075   -3.28332668564050
C         3.84807415775299   -4.02779882026541   -4.21677097858969
C         4.46331710774421   -5.17137007885018   -3.72403069090562
C         4.92485402965629   -6.15219002311689   -4.58367838886298
C         4.77239046999744   -6.00421997292848   -5.95148002856570
C         4.15756213464697   -4.86990732016792   -6.45353210517457
C         3.69832247847390   -3.89083127253652   -5.59122873731145
H         3.22133141695647   -3.00595890027291   -5.98931345043915
H         4.03631871006899   -4.74778023106532   -7.52019341980284
H         5.13253298358298   -6.76893421832129   -6.62376405276370
H         5.40517268344321   -7.03422357132049   -4.18534983319942
H         4.58660688392096   -5.29209143753758   -2.65670289109040
H         3.38980647450980   -1.99739413281563   -3.73227542781328
H         3.87034611500806   -2.98256212446076   -2.35213150609354
H         1.26806098270291   -3.29879002577244   -3.91722424167293
H         1.74650456332031   -4.27952852594402   -2.54525091115305

