103
CSD_code = TUFWAU | q = 0 | S = 0 | Stoichiometry = C43H42Cl2F10N2O2SiTi | MND = 6
Ti        9.62006389806088    7.11741946191037    4.53244387738000
Cl       10.62254475581822    5.27942975821778    3.74686466302982
Cl       10.95251020714099    7.28063835075296    6.31751772672399
Si       14.37682511319630   10.41011153404040    5.82227449316126
F         8.12834536784125    4.47957688560618    1.13043851587394
F         5.87801741710949    3.03086289642474    1.50617844204367
F         3.94731409148339    3.89447894721994    3.22524552141501
F         4.28060367108351    6.25989566676258    4.55951372276974
F         6.53064910368844    7.74931307789259    4.13513870161357
F         8.46302567807947    9.66383877030134    2.89269010783750
F         9.90086748613445   11.77464821105329    1.91407937286722
F        11.39226308592733   13.30526278446828    3.62752030656401
F        11.39500439313223   12.73760735453868    6.28890039577620
F        10.01431172409472   10.60430473532875    7.23941949686868
O        10.61822627511921    8.18370688641354    3.58235930830746
O         8.37805760086186    6.26701671146939    5.39309021567951
N         8.53705205981255    6.90709231685256    2.56513890667164
N         8.64992519571063    8.87819561703875    5.45754622109164
C         9.11111709389846    7.14156399055102    1.42351932591468
H         8.61693731521082    6.82047076214501    0.50213927103066
C        10.31252601369525    7.87064062631182    1.25299860700911
C        10.78216584601305    8.14431056053726   -0.05054278945492
H        10.21918511225006    7.72611230537112   -0.86887421913233
C        11.89863031721593    8.91376218014345   -0.28301465578348
C        12.58410517837769    9.42849066260602    0.82899805599012
H        13.46375484029800   10.03870255957958    0.69165242363036
C        12.17203009555990    9.18491097587915    2.12385863664863
C        11.02087379723297    8.38802850022077    2.37335085501780
C        12.41212041649675    9.23896659343362   -1.67599330090522
C        11.55501082107823    8.60978634454226   -2.77714598293570
H        11.54809511473296    7.52538204489641   -2.69708687898628
H        11.96839530820792    8.87072019960445   -3.74883984983239
H        10.53337968757443    8.98042747733344   -2.73824023619155
C        13.84462782524590    8.70611726214089   -1.81758051128280
H        14.51553183791014    9.16815657007615   -1.09904769285877
H        14.22167939339672    8.91432241938423   -2.81627203816865
H        13.86332035711943    7.63009317997698   -1.65901371554713
C        12.39725566697364   10.76259352439026   -1.86444719605314
H        11.39039693178203   11.14977176749219   -1.72408526170740
H        12.72862234163838   11.01642052428868   -2.86871342983011
H        13.05358104460703   11.25905678057196   -1.15562148100762
C        12.86835356802918    9.67168159842299    3.25516086592321
C        13.40731349917483   10.03600342245405    4.27491734430083
C        15.91111694677577    9.27949962109052    5.76111189951724
H        15.61622967783127    8.23474354764645    5.77544664809640
H        16.56387059214027    9.45074807180546    6.61243009532204
H        16.49369436466490    9.44512008071762    4.85962856068297
C        14.89294141864990   12.24515353522959    5.74288341815345
H        15.46714311142392   12.45727946677203    4.84571494506687
H        15.50822102995980   12.51262717920906    6.59701569476055
H        14.03133993570378   12.90539347350508    5.74437035436137
C        13.30829023657605   10.03018040014346    7.34791355806225
H        12.69523054639906   10.87704316343614    7.63960017132208
H        13.92818588021532    9.77335002603015    8.20248817815261
H        12.64821657164848    9.18665724692831    7.16209814451110
C         7.38655191111035    6.15532344216744    2.63463355252482
C         7.18595820187055    4.94070331125068    1.95778334802562
C         6.03760289757768    4.18296141789381    2.15711972763724
C         5.04808390778862    4.62350471447909    3.03237111597866
C         5.21829896171758    5.82885472179771    3.71198507742739
C         6.36759683886158    6.57104024176859    3.50230235644759
C         7.90733721350057    8.79280060075940    6.51738213850473
H         7.62230409151169    9.71133073600805    7.03895016541256
C         7.40253875913503    7.59146879220850    7.07208279632741
C         6.58562754938476    7.67599768911915    8.21832221019119
H         6.35169508272477    8.66086248086154    8.58773134343696
C         6.11356062827679    6.54943989185258    8.84037874786377
C         6.53626965349834    5.30587642018821    8.33788705852855
H         6.21376998336993    4.42428297748891    8.86406939410317
C         7.33715986505086    5.14849779919055    7.22783238883786
C         7.73241123737966    6.31680795978660    6.51987276692037
C         5.19322382169717    6.58151005738127   10.04948923687900
C         4.81936525206474    8.00913644998486   10.45620694394596
H         5.69971247539181    8.57567320633983   10.74946344281734
H         4.14343460686643    7.97712495328722   11.30779876054298
H         4.31268071464149    8.52592107044936    9.64475130205907
C         5.89588795690148    5.91100883266858   11.23800008778149
H         6.11249007065786    4.86586238567949   11.03678826815740
H         5.26273304866750    5.96145943602772   12.12081152230654
H         6.83306891263616    6.41831748249157   11.45521406404787
C         3.90143225316514    5.82543232583164    9.70846385205652
H         3.41666515306596    6.27928194889606    8.84701489106566
H         3.21470416377453    5.86263731451256   10.55093573329831
H         4.09790804610523    4.78233885459225    9.47811687549839
C         7.87893148723204    3.78650939550913    6.80735907985391
C         7.34276192193968    2.64711128168183    7.68118957186981
H         7.62995218355015    2.77760349076756    8.72165982791292
H         7.76896241461792    1.70770755836050    7.33706364503565
H         6.25994263026626    2.56871480087816    7.60954896512076
C         7.51264358570838    3.47255337935292    5.35059863911555
H         6.43371800399411    3.52450989601111    5.21358134414086
H         7.84391972026584    2.46765715483821    5.09982704312507
H         8.00121940061851    4.16567378388484    4.66753865640659
C         9.40722870953032    3.83040830568368    6.95949437446654
H         9.84846712461375    4.59028595782064    6.31372986547390
H         9.83373171171963    2.86782477633810    6.68763573779539
H         9.67873271545503    4.05530749537499    7.98911884476821
C         9.23323017027789   10.06543281494008    5.07413170737762
C         9.20818941346032   10.42335058380003    3.72078405942063
C         9.92862100701180   11.49368865922822    3.22021046126641
C        10.68791640477038   12.27268178966791    4.09110373944015
C        10.69741210021368   11.97112511246791    5.44953939389478
C         9.97534917674482   10.88740763804954    5.93428806493984

