57
CSD_code = TUFZEZ | q = 1 | S = 0 | Stoichiometry = C25H26ClN4Ru(1+) | MND = 9
Ru       -1.37816965390066    5.31524448378143    9.12510446989032
Cl       -3.34609099579786    5.79127506735143    7.94506989645197
N        -2.06690546672644    3.43641132410488    9.14899153036764
N        -1.79295535346530    3.44971712411680   11.47251663808595
N        -0.81311531164038    3.59004560221998   13.55844461732132
N        -2.49158025726440    5.56479031065038   10.76972132752113
C        -2.40463073426802    2.82022234493037    8.01186338173695
C        -2.82771926610849    1.50623407130190    7.97650620656436
C        -2.92815556910048    0.80080006213721    9.16857983717773
C        -2.58584335585629    1.43766490162936   10.34800587634712
C        -2.14510297199647    2.75678998028378   10.30181584175367
C        -0.91402915135055    2.91356942723250   12.42361399956373
C        -0.12565344780711    1.79474236279656   12.14500794683752
C         0.76364175823853    1.37011410043723   13.11588420307464
C         0.85252581655404    2.06502285006212   14.31428780267362
C         0.04276887912350    3.17574353642613   14.47711746010758
C        -2.49665143142019    4.64242405145357   11.73915952681587
C        -3.17852245922204    4.83621620007974   12.93466846283735
C        -3.85458204533038    6.02718652597388   13.13184439291563
C        -3.84217702870052    6.98147893258582   12.12371219519704
C        -3.15613292706078    6.70788228253868   10.95722316402047
C         1.49004709398655    3.23533403724319    9.09877113057767
C         0.83950505068452    4.57744439484776    8.96885231471887
C         0.40227915886196    5.04214425082927    7.69631423558090
C        -0.10068426813797    6.34273423593451    7.54420158497832
C        -0.16389566619531    7.24493070166870    8.64439024209323
C         0.22743917378562    6.75745827467681    9.90435147014638
C         0.72538882273352    5.43959325239824   10.07169255204122
C        -0.50147379999036    8.70587250425128    8.46282869342937
C        -1.58491684088314    8.94887160161402    7.41193705961546
C         0.78950751029018    9.44858170860812    8.09233123887219
H        -2.34922513686122    3.41814566530984    7.10934228863930
H        -3.08809573147729    1.05128055745677    7.03545520585625
H        -3.27868761304517   -0.21864055105822    9.18151065614900
H        -2.66628023402228    0.93820185404683   11.30028634383058
H        -0.19669095030494    1.27748594417441   11.20169639877946
H         1.38388640380926    0.50543697197874   12.93493969634451
H         1.53248131085360    1.75643532451207   15.09020400482056
H         0.07024104307466    3.77287282522473   15.37764995874113
H        -3.16503090419809    4.06668811846842   13.68658789375386
H        -4.39171231519686    6.20055729317915   14.05043312648914
H        -4.36230619586413    7.91858208354600   12.23332133273971
H        -3.14392685556492    7.40910660295403   10.13062707155481
H         1.50999206362880    2.90478806238905   10.13499585588629
H         0.98325981703063    2.48688198000601    8.49162830928609
H         2.51991478434110    3.30433665265619    8.74549169394195
H         0.54642383158823    4.41294915836387    6.82386569804226
H        -0.36828677268101    6.69465366628639    6.55436774902434
H         0.23262048431695    7.43073926766191   10.75680510124307
H         1.10285875492214    5.13020065378784   11.03968894810945
H        -0.85489151793689    9.09383349643990    9.42573743078777
H        -2.42242841738330    8.26777573397443    7.54910225444034
H        -1.95124565661817    9.96827140023751    7.49487126759631
H        -1.19358459099154    8.81911301743237    6.40620247159920
H         0.58223141165033   10.50901194343585    7.98083824078856
H         1.54687799816440    9.32323369374668    8.86327737405449
H         1.18798972673308    9.07521807961261    7.15156432817888

