56
CSD_code = TUGBIG | q = 1 | S = 0 | Stoichiometry = C18H30ClO4RuS2(1+) | MND = 9
Ru       -0.58611869768312   -3.56900036855072   -5.53056709225366
Cl       -2.50786373964099   -4.87022800563696   -5.80808342896391
S         0.28907028219858   -5.28351989141371   -6.97057957913467
C         0.90720188232257   -6.54577308256538   -5.79236080916557
C        -0.03213177701744   -6.66722581161481   -4.62316735345101
S        -0.24345693992928   -5.08955735045339   -3.73035496941812
C         1.44284747890754   -4.70469205998462   -3.10711650240612
C         1.97289261551351   -5.79767923866729   -2.18879250614803
O         2.45482791556631   -6.84111569611583   -2.99624060619548
C         2.66064283067407   -8.06838073252505   -2.32694830968457
C         2.79370412085943   -9.15669608646629   -3.38606860430771
O         1.53698654231998   -9.30304358944896   -4.01585560446681
C         1.39674351361342  -10.43872467084601   -4.83662113384335
C         2.33003851582175  -10.48066163888242   -6.04906514667200
O         2.06485504538510   -9.38286561778307   -6.89513189304196
C         3.02610842446396   -9.24143869862096   -7.91693253100164
C         2.64188027189101   -8.06936075707065   -8.80893396819754
O         2.75604750022925   -6.87867752770252   -8.05743145958828
C         2.34568084877774   -5.71886583366652   -8.73675388798365
C         1.86267870021103   -4.70129804710297   -7.70908742312001
C         0.61600319626259   -1.70860216191361   -4.80220813506098
C        -0.66492333895748   -1.71403445511877   -4.18630924827692
C        -1.82677324224830   -1.72806498435280   -4.97250077940901
C        -1.72281629080134   -1.76024382991940   -6.38517823472058
C        -0.46293340815342   -1.78950002392725   -6.99573844966147
C         0.71480837743292   -1.76056228713653   -6.19648204355585
H         0.97735225666418   -7.49795952419243   -6.32299250756105
H         1.90843983152251   -6.26345389980397   -5.47055224987142
H         0.34178738550436   -7.42140513120400   -3.93132008063328
H        -1.04610470602794   -6.91681610478524   -4.94419681962269
H         2.12370674129460   -4.56300976450807   -3.94496068678002
H         1.32483462718149   -3.77387236344821   -2.55530666684206
H         2.77997310389170   -5.39028344163326   -1.56023393363145
H         1.16980191534953   -6.15108114603472   -1.52550458340394
H         1.80393371201627   -8.29412282782422   -1.67806923488832
H         3.57072972977055   -8.02639439951188   -1.71397003525823
H         3.55918455177349   -8.84881631899833   -4.10877084767978
H         3.09936543301385  -10.09750371945201   -2.90879742204687
H         0.36082079429731  -10.40549594846587   -5.17895643112463
H         1.55956789886296  -11.35524400379289   -4.25122328267549
H         2.16138651485486  -11.42526077040515   -6.58717923169666
H         3.38015513761761  -10.46056775763766   -5.72369549647664
H         3.07481470362008  -10.15530918256997   -8.52596803217897
H         4.01771908743066   -9.05565267322099   -7.47941685358301
H         3.31086205228043   -8.04320026844461   -9.67977634117260
H         1.60743947604024   -8.19773529945095   -9.15638229836580
H         1.52745379448828   -5.94391026137893   -9.43428326953838
H         3.18192024300853   -5.29125205891097   -9.31157154608404
H         1.64235644412024   -3.75660570440199   -8.20245768336729
H         2.60528134645126   -4.56673558811099   -6.92462197842468
H         1.50728821931854   -1.58783097937189   -4.19846839290425
H        -0.74462020898136   -1.61371759550740   -3.10843994100989
H        -2.80164609379734   -1.66178585384372   -4.50471230327962
H        -2.62017485517055   -1.72190679068036   -6.99108233855923
H        -0.38401211838550   -1.74297399912852   -8.07693922784848
H         1.68558235398458   -1.67628417579270   -6.67134058375051

