61
CSD_code = TUGBEC | q = 1 | S = 0 | Stoichiometry = C20H34ClO3RuS2(1+) | MND = 9
Ru        2.09350631332051    5.46279174183531    9.60289153991701
Cl        2.02439553988554    4.69042511087834   11.80256540887035
S         4.31462600822900    6.29715374090775    9.96040668981947
C         5.30976406690073    4.95917886709940    9.21013914840781
C         4.79426006964048    3.60153860110384    9.61091552416898
S         3.09751758793036    3.37025328558290    8.96247141576499
C         2.45807373684921    2.01858733153031   10.01627608751383
C         3.44351261538650    0.87278632959406   10.18277330274231
O         4.37855621489611    1.26170530032494   11.15726091414168
C         5.50621067078475    0.42500650963251   11.29176884858358
C         6.55381753209315    1.19517195232059   12.08722149939561
O         7.09949165362789    2.19645438579229   11.24956130535097
C         7.97470559681849    3.08918683002548   11.90058456177723
C         7.25832733238885    4.28996094047257   12.53339635041142
O         7.10601242524335    5.28066034007174   11.53119356995953
C         6.33400357548840    6.39936555181567   11.89046589548645
C         4.82879468608485    6.18672493948766   11.71094190062543
C         1.10080368800126    5.58446779260784    7.52804838066619
C         0.14646213556703    5.08287578060016    8.46129965373758
C        -0.18313489737763    5.81013322730106    9.61176036531488
C         0.43518120596771    7.06104047555352    9.89376750285811
C         1.38734664099347    7.54289283856926    8.97349830063461
C         1.71346326404264    6.81765650365600    7.80248349013158
C         1.35989327354726    4.85307269916698    6.25020486545552
C         0.01138985244346    7.87951489103647   11.08819148325049
C        -0.77720796997916    9.10465483663759   10.61386699615503
C         1.21476182501928    8.29033252128950   11.93956838665146
H         6.33677785237245    5.08937674864530    9.55185558948173
H         5.24537553539283    5.11553607240856    8.13218599374699
H         4.74697374548342    3.48069458106993   10.69261740542673
H         5.42852588497695    2.81828083314466    9.19713182702233
H         2.22745562803050    2.44689551940455   10.99439125092688
H         1.54842622824871    1.68487374025335    9.51968841684211
H         2.89357770264405   -0.02332796743423   10.50888235154420
H         3.94304354355227    0.63558119916504    9.23055382119756
H         5.24044652854341   -0.50186550610778   11.81673101595324
H         5.91617910301773    0.17242493823640   10.30495739991693
H         6.07163000118167    1.63602386445708   12.96869216188001
H         7.34465399110148    0.50933520808308   12.42045669386501
H         8.56078200689728    2.56370565362091   12.66278029314049
H         8.64961213657192    3.46835876372941   11.12930830932333
H         7.85813332646913    4.69382785946807   13.35988852778103
H         6.28275790467398    3.97937725685737   12.92894599402807
H         6.52253708246836    6.67778367775595   12.93555202481724
H         6.67174739558939    7.21877704962020   11.24861158794329
H         4.49799714330213    5.22702292609744   12.10649057904935
H         4.27426053309633    6.98162773704720   12.20722176753141
H        -0.38894077431971    4.16748212159237    8.22952283420290
H        -0.95774088805004    5.44117643188858   10.27686389537710
H         1.83189983727196    8.52036620455872    9.12324664456740
H         2.38923010041374    7.25467861699302    7.07669308860000
H         2.28763907199258    5.18203714446036    5.78891955568131
H         0.54422961562919    5.04840808447685    5.55269252490144
H         1.40838683923335    3.77832198867280    6.41518443443532
H        -0.64672238274447    7.26289279840102   11.70943753397574
H        -1.13671161979794    9.66201199442051   11.47413535534451
H        -1.63497682681922    8.80396625957424   10.01645972518025
H        -0.15157332852358    9.76284852760937   10.01569582275261
H         1.77816131431336    7.40580075031305   12.23443798377008
H         0.87232497386108    8.79352201398007   12.83926131763092
H         1.87296615008766    8.96728358254801   11.39988288435451

