56
CSD_code = TUGBOM | q = 1 | S = 0 | Stoichiometry = C18H30ClO4RuS2(1+) | MND = 9
Ru        1.25820268667120    1.69564221663704    4.26108459584133
Cl        1.52762216019967    0.10003642519898    5.94372933126510
S        -1.12253272580180    1.37365077481093    4.27708880237683
C        -1.72504107766476    2.20571971810567    5.79611794697348
C        -0.64814527448198    2.40912483634306    6.82774575336585
S         0.89887736313497    3.10538242569586    6.14093493320869
C         0.37603371052881    4.67919910385201    5.35995141740654
C        -0.18363348829655    5.65772163324222    6.38139772777217
O        -1.51456183327059    5.29669661603034    6.64427942344642
C        -2.08572458895212    5.98250756966215    7.73846703728472
C        -3.48820726929742    5.43876546055329    7.96471077995455
O        -3.39740979194531    4.10533960074202    8.40841082749569
C        -4.66224078331251    3.56264877148106    8.71934983882776
C        -4.52400610004240    2.08261212207238    9.04818512978229
O        -4.45899426815418    1.35195416540010    7.84420513199755
C        -4.50224276683860   -0.04363065254538    8.03936176138549
C        -4.35824327195491   -0.70631260809564    6.67656840641594
O        -3.04128142101241   -0.45842857900856    6.23688754683602
C        -2.79116712005398   -0.77849961185483    4.89161784789357
C        -1.34597876869987   -0.40915289168108    4.60564540005273
C         1.78068647805316    0.69826735812206    2.24173003008805
C         1.22753809398091    1.98482321687672    1.99936986183337
C         1.82790310121350    3.13111923864765    2.54441874257587
C         2.94177975904575    2.98981056634872    3.40164901782195
C         3.47857959542517    1.71513156959425    3.66993314540506
C         2.90634544926095    0.57167460413788    3.06569233830263
H        -2.13375234156536    3.16305824985958    5.47176314355062
H        -2.52628683384041    1.59101050136742    6.21336642019423
H        -0.32387572096538    1.46352881337280    7.26826022467654
H        -1.01175299075560    3.08663702958027    7.60080726373205
H         1.28386028146330    5.08201484538343    4.91493739895446
H        -0.36648057023873    4.47205981720805    4.59008207943828
H         0.42009058541281    5.62976468659040    7.30113643987417
H        -0.13673663769241    6.68055400672383    5.97540435221795
H        -2.13596637397884    7.05996269762497    7.53067406043313
H        -1.47994097808865    5.82196502228128    8.64078808592884
H        -3.99668078781164    6.06066029884730    8.71579674805743
H        -4.05659952507916    5.48834970100603    7.02475052239787
H        -5.34182818945537    3.67092575108114    7.86284880786275
H        -5.09311557652198    4.09373539395617    9.58063982689156
H        -3.61658560266392    1.92008140200246    9.64594522009714
H        -5.39634898671889    1.76069692063830    9.63451234059271
H        -5.45436732238062   -0.34009021319584    8.50166993006795
H        -3.67617470963666   -0.36580325971125    8.68823639740456
H        -4.54413415098814   -1.78559702629295    6.75339629745189
H        -5.08150598107245   -0.26468526160779    5.97818028254398
H        -3.48062434637115   -0.23595884518692    4.22543366964395
H        -2.92791407654059   -1.85706956275618    4.72004188323216
H        -0.98693338588663   -0.89678865423436    3.70004424114491
H        -0.71334218644261   -0.67697635538121    5.45322382177076
H         1.37814012522868   -0.16817363293742    1.72901543908836
H         0.39933741649297    2.08769526843028    1.30649443556484
H         1.47480532122451    4.11478143785790    2.26284286957746
H         3.44382762768052    3.87055839725357    3.78842538825488
H         4.37706354248450    1.61820757870782    4.26830939944740
H         3.36076452705376   -0.40040865891610    3.21904023429428

