56
CSD_code = TUGPIW | q = 0 | S = 0 | Stoichiometry = C28H22ClMnN2O2 | MND = 5
Mn       11.65096987608403    0.11190703337091    9.16727612982112
Cl       13.23369983057789   -0.52276928258114    7.84196145632755
O        10.52198310278362   -1.07395068865137    8.39689877160349
O        11.55685942849204   -0.45521431679237   10.83197746518831
N        11.06547364615246    1.50964294879010    8.09959544341046
N        12.89689513054739    1.48797619234980    9.89246689176896
C         9.52608137655997   -0.90490471592685    7.60562754343069
C         8.68694517769973   -1.99951158773001    7.27758892171422
H         8.90059197962711   -2.94750967124084    7.74837246504630
C         7.64322764064136   -1.85595131822799    6.40621068897139
H         7.01395451066209   -2.70352674089678    6.17709087543574
C         7.38243108195555   -0.61912743051534    5.79870402620248
H         6.55880629646413   -0.52607713066994    5.10716197587273
C         8.17204712309569    0.46017739178796    6.08380289306341
H         7.97766436918765    1.41782033386381    5.62117762502744
C         9.24682671417538    0.36394241957591    6.99259199720558
C        10.04310711458306    1.49467487215100    7.27371566499390
H         9.78290347409269    2.41999064191218    6.76012833465816
C        11.72796312662538    2.80181584128391    8.25931059297351
H        11.87717776193546    3.27650785185514    7.27977558040693
C        10.89648590271216    3.71563996957046    9.13219354525002
C        10.86289048460807    5.08073022358716    8.87700033599775
H        11.41489577693258    5.48115919502266    8.03884186278109
C        10.13694523596135    5.92820307167305    9.69499784494686
H        10.12040554046303    6.98782721222442    9.48867871389130
C         9.43499512964462    5.41940891968248   10.77402035697125
H         8.86848509988091    6.08026689839831   11.41277081561943
C         9.45858112180335    4.05845881503107   11.03081024012670
H         8.91090562601387    3.65626622525301   11.87026168927472
C        10.18528785089327    3.21063073574394   10.21449655393909
H        10.20408887575979    2.14199517849881   10.41988441096836
C        13.12249557372950    2.52214743236833    8.89243006630738
H        13.74049768341613    2.05510730348500    8.11004147420967
C        13.77844619574063    3.80136765449861    9.35035266890658
C        14.75109564325192    4.38095074945097    8.54447045966564
H        15.05515233289797    3.88068600216637    7.63660928262012
C        15.33106889518555    5.58780325983994    8.89420122794063
H        16.08482522009787    6.02531766391671    8.25684468874188
C        14.94755751983302    6.23051091002451   10.05850366127656
H        15.39950944345867    7.17159707541271   10.33372178639099
C        13.98370587118343    5.65811782402280   10.87080405060869
H        13.67967773112631    6.15147817807528   11.78192512683856
C        13.40000521776595    4.45391224839630   10.51995440944031
H        12.64885310913690    4.02060375265649   11.16342632488154
C        13.59087151554265    1.47034521742444   10.97513627480094
H        14.38298497415905    2.20144512067827   11.13670636303987
C        13.32894425702754    0.55493415253483   12.05027677090255
C        14.07400180304722    0.59748201010446   13.23082508609097
H        14.89459989265455    1.29705829899066   13.30227876679044
C        13.77307384525531   -0.23539831136232   14.28784410700088
H        14.36075491199954   -0.19845126437424   15.19207188642092
C        12.70700794224869   -1.12173821513708   14.18632738205123
H        12.46913853228051   -1.77314714530917   15.01417325479849
C        11.94872072194977   -1.18265140737034   13.03561857787903
H        11.12535432677252   -1.87545228116736   12.94488328021208
C        12.25038143362494   -0.36452531771800   11.93858130929486

