58
CSD_code = TUGVAS | q = 0 | S = 0 | Stoichiometry = C19H30CrO5SSi2 | MND = 9
Cr        3.36806861438339    2.40948360911032    8.51010784947907
C         5.04596161275315    3.94746131062970    8.50613585352992
C         5.48182440851715    2.88283551974297    7.71767189381672
C         4.62080027666549    2.52783417700640    6.64586986635291
C         3.43572788785468    3.21549671855580    6.38450764502134
C         2.97888546517768    4.24375447375717    7.24060489324828
C         3.81239029582847    4.59482946160761    8.30444879385425
S         6.08369825854949    4.74777307718912    9.72635716612639
O         7.23160106378542    3.91313422074189    9.98176547149056
O         5.25658202317548    5.10886854948091   10.84797386070955
C         6.71408339451990    6.31617894945055    8.94582969267603
C         7.31777441510485    5.93492323349553    7.60935577394980
C         7.75905603464014    6.80265467373272    9.93477826302921
C         5.57147055161419    7.30547032881568    8.81534430373688
Si        6.96308544758118    1.75300027278155    8.16936504807012
C         8.67919608875351    2.49988652859702    7.78327576371545
C         6.81018080231480    0.27609762919883    6.95406216503057
C         6.71580983928820    1.00479243384918    9.90015285500249
Si        1.34182689115013    5.17147234007971    6.97413614882215
C         1.79536430991876    6.87109775027752    6.21928282312407
C         0.51942046462375    5.36748708872386    8.67775354456288
C         0.24264462519850    4.17296227527811    5.78299702084469
C         3.44992462167871    0.60334408529860    8.69549536139342
O         3.40601783420537   -0.54337089089347    8.84645118493474
C         3.18064472314733    2.33174800188754   10.32407026905586
O         3.00638235663814    2.19953758927640   11.45410402962794
C         1.62261958362616    1.91709546241972    8.54280924523795
O         0.52768036963211    1.54268359119043    8.60138381441910
H         4.94037682148534    1.75691096039749    5.95682565554616
H         2.86183938716323    2.97051454283161    5.49842328536919
H         3.54438813845007    5.39572842736394    8.98045265074588
H         8.07170038242744    5.16668644052294    7.75409420860989
H         7.78541199524296    6.80067165437096    7.14219772506454
H         6.55603037682166    5.55182582424201    6.93115490036779
H         7.28740077825069    6.99966373184191   10.89504288001350
H         8.23772008733683    7.71399879829760    9.57963274271294
H         8.51604971534776    6.03568709153790   10.07962328183937
H         5.00663734960875    7.33316127818110    9.74496390993069
H         4.90569350095361    7.03629589404794    7.99739230065625
H         5.96099978946285    8.30377633622743    8.61905215402213
H         8.71044497906973    3.01276103877246    6.82538619922987
H         9.41047187942635    1.69866597287754    7.74494518967925
H         8.98535944250230    3.18719854624811    8.56171742805832
H         5.85179609458799   -0.22586110467416    7.03931927616206
H         7.57393258369035   -0.45737550767304    7.18869200878376
H         6.95645200727161    0.55835317196449    5.91582780816850
H         5.70320954961801    0.62719448951908   10.02316825031648
H         6.89547280224144    1.74118823625581   10.67340993430157
H         7.40209289645826    0.17851966232099   10.05914521829335
H         2.35230029124809    6.77097731583333    5.29178636906463
H         2.39436758675671    7.46716968608607    6.90188825093443
H         0.89654283764607    7.43758599311364    5.99902133154698
H         0.44296615981376    4.40802572259480    9.18204210365634
H        -0.48246234982186    5.77408926787838    8.58441589722104
H         1.07976045464595    6.03393267266431    9.32643678120658
H         0.66721228298939    4.10488876570355    4.78560803549576
H        -0.73226139168782    4.63952124892056    5.68545655979803
H         0.08587131066563    3.16371138044976    6.15198706234232

