100
CSD_code = TUHHAG | q = 0 | S = 0 | Stoichiometry = C42H50BN6Rh | MND = 7
Rh       -2.48762212750953    8.28605473981135   16.20785759602805
N        -4.70273951626571    8.11638758781114   16.91481270219446
N        -5.52923985946833    9.07126945708177   16.48697722340913
N        -2.70376767614570   10.34436713260343   16.80438101969820
N        -3.88626099529740   10.91307066469907   16.53428209651518
N        -3.37950530292871    8.86368156701321   14.31011228289914
N        -4.39560032070512    9.73571305239973   14.39114294905109
C        -5.42732215724817    7.23115336740620   17.59212575882322
C        -6.77011963445839    7.63323078071109   17.59593251564286
H        -7.59501875911924    7.13172987856913   18.05988547573595
C        -6.78288189410620    8.80992962348831   16.88096732070117
H        -7.59199399036222    9.46687018848386   16.63291905626648
C        -4.86672772063533    6.04001560857699   18.24884473883780
C        -4.33241963316868    6.14873826012207   19.53444266584930
C        -3.82652577701375    5.01532044725729   20.15014564858065
H        -3.40716420340813    5.09345241908400   21.14388305590444
C        -3.84481784292443    3.77879057817024   19.51730608835523
C        -4.38668051771154    3.69028383339368   18.24443541696644
H        -4.40815108575630    2.73374469711222   17.74041723149751
C        -4.90178177075320    4.80636625629475   17.60045023910170
C        -4.32171503364339    7.47699250323047   20.22993366956241
H        -3.71077691488402    7.43956578272296   21.12864374848153
H        -5.33627308694139    7.76098578769452   20.51089355069402
H        -3.93287035866736    8.24600379806058   19.56535708633318
C        -3.28782007410309    2.57117887454738   20.21030057567798
H        -2.24087003956892    2.72926283866423   20.46714324767854
H        -3.36095087780079    1.69018882728014   19.57751243853733
H        -3.83153439070898    2.38028996982780   21.13502969453081
C        -5.49127675870988    4.70013127654827   16.22618026607642
H        -5.25266499786554    3.74049359340131   15.77400418258790
H        -5.11100891910734    5.49772447131894   15.59154263781820
H        -6.57578173903078    4.80058593117151   16.27333988319065
C        -2.02425632171217   11.19360941438783   17.57706144264924
C        -2.80144105214983   12.33656506780940   17.81252043161886
H        -2.52386790802960   13.19588279454796   18.38775779434543
C        -3.97112652114216   12.11021424869201   17.12832835158257
H        -4.84599875628704   12.71937591490190   17.02597907571608
C        -0.63558226406142   11.06346037527698   18.04190902845249
C         0.40576142996921   11.23191606364094   17.12560239105958
C         1.71190108264250   11.27537129602927   17.58423020335407
H         2.51822834107152   11.41691132292172   16.87771913182913
C         2.00777944330069   11.13868265588935   18.93409124089954
C         0.96307567353041   10.95432919062171   19.82708918854224
H         1.17906195679503   10.84007433989068   20.88058037020690
C        -0.35822394419265   10.92888380984103   19.40199038394669
C         0.09107102541516   11.35600930708813   15.66643856533237
H         0.99961953900562   11.39192527042249   15.06978374369817
H        -0.48926907769051   12.25870235659168   15.47469301823393
H        -0.51301955583920   10.50124959270106   15.35469124280862
C         3.42894736100325   11.15924844902313   19.41070960708842
H         3.48985955839818   11.51682763077415   20.43603606446046
H         4.04087535058483   11.79725545182790   18.77704472712848
H         3.84760316202304   10.15234000399683   19.37898268396226
C        -1.46471481624565   10.77071621473195   20.40301320323933
H        -1.13333351523799   10.17551447425869   21.25161755944425
H        -2.33449048458642   10.29754434851447   19.95363115403892
H        -1.77160840220961   11.74775977889587   20.77762592702933
C        -3.23241947548528    8.55088355477266   13.02158960352995
C        -4.17721623320692    9.24836221536663   12.25728550285461
H        -4.30129113921689    9.20598654208637   11.19456696513416
C        -4.89096066949098    9.98395400685193   13.17210500399365
H        -5.71081434389471   10.65886548838743   13.03363701094241
C        -2.25187322911750    7.62899400734442   12.42509588079957
C        -2.62639790476065    6.31875483524266   12.12835522463077
C        -1.72840448541282    5.49347077571040   11.46456342500031
H        -2.01533536214242    4.47433963695253   11.24412964463079
C        -0.48272105796878    5.95299371871652   11.06569908030093
C        -0.13907831764798    7.26951533477457   11.34481713490849
H         0.82482214542709    7.64276221953218   11.02743368423269
C        -1.00686146395055    8.11312009810455   12.01864483570442
C        -3.99517025967661    5.81354153644393   12.47853454791964
H        -4.68139808710298    6.01194621084414   11.65396195913421
H        -4.38372412968570    6.31418723128475   13.36201033523878
H        -3.98038662184406    4.73953335567760   12.65268961784634
C         0.48460361897802    5.05233611637186   10.35823894335920
H         0.96065785328965    5.57393811391761    9.53015039362189
H        -0.01601579604729    4.16662298795845    9.97488094031698
H         1.26846693804743    4.73152189470360   11.04529213942858
C        -0.63766287932830    9.53911776249011   12.29275544204813
H         0.42751555147734    9.70269362402445   12.14649577547487
H        -0.90622934054481    9.80878110732757   13.31177749130394
H        -1.18331464008920   10.20304323350543   11.62141279195808
C        -2.22812249932220    6.25322797042737   15.73656586538493
H        -2.48650786793574    5.79919117693844   14.78576917475294
H        -2.60618920377207    5.68470314317441   16.58156192488599
C        -0.91998082065815    6.81094736402782   15.80933281307247
C        -0.57576195369499    7.52634978677759   16.98803913787508
C        -1.57771187161301    7.65146448169055   17.99351108573495
H        -1.32141737292685    8.30279510001306   18.82404767896630
H        -2.11477760440606    6.76454888266260   18.31680850365088
C         0.08813208936242    6.63923432200091   14.71050401285037
H         0.48363423645335    7.58812897111517   14.35467524085376
H        -0.34266075351571    6.10454469604018   13.86988395197124
H         0.92565063879611    6.05601353894207   15.09834712448678
C         0.80903482678912    8.07534062123070   17.16362171593115
H         1.49822675900218    7.23190624067519   17.24643671844466
H         0.88155242045678    8.66570535760073   18.07166039982577
H         1.13331032440771    8.68245260142444   16.32232215986863
B        -4.99110357560983   10.26422256031029   15.69884003825927
H        -5.85296577076185   11.04551440872473   15.47302048497073

