90
CSD_code = TUHHUA | q = 0 | S = 0 | Stoichiometry = C30H47BMoN10O | MND = 6
C        -5.72741299386537   -0.92486692903074   14.50587114127672
H        -5.99159981565363   -0.70946332153533   15.52155618493371
C        -6.51710052138717   -1.22896923060945   13.41990488479389
H        -7.58435149742083   -1.30692183094986   13.39530952882435
C        -5.62157130278279   -1.41501726670658   12.36071858899897
C        -6.00938147958195   -1.77024670065431   10.95813062429336
H        -5.10837954884788   -1.89130547763539   10.35458944561196
C        -6.86451282294317   -0.65449311740493   10.35102750338693
H        -7.11707379353932   -0.89881956057783    9.32169757305121
H        -6.32476385975090    0.28981381293141   10.35869583897901
H        -7.78808013704517   -0.53114457432457   10.91217772583033
C        -6.77401713424900   -3.09666789339001   10.94405134265003
H        -7.04030975354599   -3.35957773606989    9.92279454420885
H        -7.68627002648025   -3.02599714910498   11.53181433153932
H        -6.15516621326710   -3.89250299545438   11.35127115749924
C        -1.79769908724757   -2.65425099910361   15.86590593048833
H        -2.04976109419174   -2.46920654357244   16.89055494471967
C        -0.97316677219351   -3.59909515713354   15.30243920321737
H        -0.40071492564431   -4.34562927905389   15.81330123934416
C        -1.04784893049529   -3.37985146967103   13.91922094580277
C        -0.30039070320666   -4.07403962129129   12.82664012476880
H        -0.76715631521511   -3.80421219093910   11.87203077956043
C         1.14080766752933   -3.55376601422266   12.80199321393125
H         1.70793684481190   -4.05719027439252   12.02310780333386
H         1.62966882356135   -3.72376493054231   13.75958293926540
H         1.13213380149127   -2.48652048688774   12.58911467130449
C        -0.33731601681840   -5.59171093566020   13.00161642598438
H         0.17199954936112   -6.07312607474441   12.17039908286069
H        -1.36493017501298   -5.94627012967575   13.02486033032368
H         0.15585865452937   -5.88749442760709   13.92489674694860
C        -1.98263284414327    1.62977188740063   14.81036895619545
H        -2.22830465122379    1.91749519313622   15.81249895140749
C        -1.22725405389221    2.26700444187102   13.85451357707471
H        -0.71708561270918    3.20318454312454   13.95069271710440
C        -1.27158064245734    1.43086581116315   12.72961138730265
C        -0.55902187388106    1.59667800421219   11.42620873072276
H        -0.98985899412572    0.88828414039908   10.70888976126958
C         0.91433513323779    1.21923008873142   11.61358271639469
H         1.45921272770461    1.35788924342323   10.68306525604265
H         0.97913420503053    0.17148304994209   11.90011346670212
H         1.37528350257137    1.83108723567033   12.38648901522167
C        -0.69957805971681    3.02059892398491   10.88873663775661
H        -0.22406073675862    3.09899052880222    9.91403767284742
H        -0.22527674585806    3.73347069335664   11.55908768540365
H        -1.74825267726769    3.28892867811213   10.78204714320126
C        -3.53827099332645   -4.28561243807681   11.71043772991089
H        -3.68375050480098   -4.37170925230546   12.77518401322530
C        -3.70617710448935   -5.23695647563259   10.71995455840739
H        -4.01870330407112   -6.25568562971964   10.83674336441524
C        -3.37929996129849   -4.56467548835904    9.53850918160023
C        -3.37309242609947   -5.07460203917422    8.13242458286226
H        -2.99768641948366   -4.27028740626664    7.48905709784969
C        -4.79352194557725   -5.43924739529253    7.69381598499462
H        -4.79805022716530   -5.78051981586546    6.66043892364993
H        -5.45239905113204   -4.57702304870561    7.77721491756653
H        -5.18934935935819   -6.23343276812751    8.32263977166166
C        -2.44080741373251   -6.27989715293560    8.00457205910341
H        -2.40553138851367   -6.62717023443809    6.97368279751317
H        -2.78884481171271   -7.09625464901243    8.63308043013054
H        -1.43442359982649   -6.01061876624085    8.31665230936405
C        -3.74743717037407    0.94002597076310   10.24122771192305
H        -3.95571769627385    1.56493223714832   11.09158898674039
C        -3.91809479528201    1.22274641763932    8.88549818844345
H        -4.30404810080526    2.12616336478067    8.46069890120049
C        -3.48248334137800    0.08934489919698    8.21869779684330
C        -3.44935473395856   -0.27198126248203    6.76924425662873
H        -2.49111941726266   -0.76395717117870    6.56728633003665
C        -4.57471460700443   -1.27199999795845    6.47732549434598
H        -4.54456125543183   -1.57897649474301    5.43471493028448
H        -5.54223665259446   -0.81508602245108    6.67489511551555
H        -4.47239864170528   -2.15481093200520    7.10321375354174
C        -3.57374660416439    0.96177602035347    5.87952448281733
H        -3.48362625343357    0.67952509555836    4.83338847866934
H        -2.79285662292949    1.68136912443888    6.11207261992317
H        -4.54061327220797    1.43801534523136    6.02297940459913
N        -4.37151880708709   -1.22658206496698   12.80024044570463
N        -4.45184966728762   -0.93037958309155   14.10783185622037
N        -1.87333043759914   -2.35717100738253   13.68682045886508
N        -2.32227028070062   -1.91099853120862   14.87327049241836
N        -2.01600649042151    0.35977015554165   13.01333261816283
N        -2.43924830976414    0.47866818271915   14.28294238645914
N        -3.14456231422055   -3.13047504812671   11.15553465557777
N        -3.05442879520642   -3.30513003260669    9.82793933630986
N        -3.23985158237650   -0.28104173312734   10.39115100266433
N        -3.07722669251353   -0.77840232563206    9.16366807452520
O        -0.90782856334312   -1.51387258100792   11.11454611394068
Mo       -2.32787071446899   -1.38445253382484   11.91130883263940
B        -3.19940607792153   -0.66308193058296   14.95399442402947
H        -3.48539256468520   -0.40118459814490   16.07174119330062
H        -2.87638012435674   -1.81881436104123    9.13479546302185

