85
CSD_code = TUHJEM | q = 0 | S = 0 | Stoichiometry = C36H40BClN6Zn | MND = 4
Zn        6.71214128401173    7.15575297689915    4.92584455415675
Cl        5.01962713661062    6.68470512047150    6.14044844789674
N         7.04601636463302    6.31291793480326    3.14854708271412
N         8.19857579021024    9.05222988787513    3.49554006453863
N         8.59419146896193    6.88373653284829    5.52710940360605
N         8.16929847583338    6.75151195476754    2.56561277592029
C         5.21729042991267    4.76002785519215    2.71463869909447
N         9.49423842609194    7.24864698169516    4.60472783188861
C        10.72650190508529    7.04142632685417    5.08219927844735
H        11.59492930734243    7.27181712395860    4.49836259258903
N         7.08733624696086    8.99155007948805    4.24093275321013
C         9.24685505536356    6.43903660785410    6.59795020998050
C         5.31951789438446   10.46158010165652    5.05471240389545
C         4.10472995664107    9.92707840204202    4.61875677818281
C         8.32639565788626    6.13651332052636    1.38814304560514
H         9.16944313864961    6.34457934063560    0.76036509051668
C         8.52239920483414    5.95850705883332    7.78209798302600
C         8.37673485115882   10.30701718767252    3.06755665797021
H         9.21189941623254   10.57047563774626    2.45014383753428
C         4.04920084073903    5.06851350730522    2.01297409202794
C         6.47800266225549    5.41734402534799    2.34508224406280
C         7.10641057407964    6.37179182685779    9.67045506344014
H         6.53953110057956    7.06163279551476   10.27915622893950
C         6.55139721909981   10.20813459203686    4.29558330251930
B         9.05683880475243    7.80498862535657    3.24260428191628
H         9.99462132678521    8.06501135964188    2.57001006802254
C         7.26738327640180    5.27342182334532    1.19838450462986
H         7.09085352940079    4.62456194949688    0.36553982732112
C         2.86116845968003    4.46036061942513    2.38341921219694
H         1.95456652461841    4.70276992243514    1.84638402634356
C         7.74729470760639    8.31741152118859    8.24353237334975
H         7.55860852460658    8.90256085819809    9.14087305579219
H         6.93155786781048    8.50774952776442    7.54320828614356
H         8.67835535880768    8.65398843986910    7.79049602090528
C         7.79648444922517    6.85479552386871    8.57030986535413
C         5.37793175858227   11.22174750763481    6.22484911801317
C         7.34967787249160   11.08771432470902    3.55530581907059
H         7.18708155656905   12.13341375837659    3.39446538755728
C         8.54768259347785    4.59863902415806    8.09921122406246
C         4.21479772715762   11.43831942598159    6.94659849685570
H         4.26061542069140   12.02104759164091    7.85622171378911
C        10.62280522914717    6.52046483312569    6.35507000016587
H        11.41676164769815    6.24931181327153    7.01980253537302
C         7.11444658128089    5.02427509351486    9.99933238045073
C         4.07553480997290    6.04849380037831    0.87649658769690
H         4.51549440340693    5.59084042565011   -0.00969811776807
H         4.67068864330794    6.92327221156191    1.13127444110952
H         3.06765613801686    6.37149864730710    0.62774651073128
C         7.84247720795303    4.15134635852275    9.20524757636023
H         7.85585429408408    3.09757802378246    9.44708555942921
C         2.99933956656176   10.91592694491197    6.53155134988124
C         2.80887271406809    3.55511799043759    3.43376791229416
C         2.96187316552118   10.16721478735792    5.36439911721964
H         2.02132355564143    9.75091133744377    5.03301482559062
C         5.18632031316753    3.85137519838858    3.77436930368930
C         9.32232218848559    3.62913194860861    7.25501850519591
H        10.38850166312400    3.70783345687907    7.46848606157212
H         9.17744571626593    3.83264514115314    6.19585337640561
H         9.00907436455398    2.60865628686582    7.46130383751467
C         3.97970940109430    3.25936635800233    4.11430893318461
H         3.95277452633532    2.55954312969990    4.93724365036893
C         4.02068180391786    9.09909508627276    3.37149650628414
H         4.74126581434864    9.43130840865168    2.62596272747090
H         3.02115771778207    9.15114517550867    2.94557427591638
H         4.22693647951839    8.05433724617271    3.61240483859829
C         6.68099698703065   11.79348268928122    6.70208451925997
H         7.47906686638795   11.05739538198567    6.62710177290344
H         6.59962652119250   12.11686598793579    7.73687109993278
H         6.96246573212503   12.65515709250213    6.09667702697956
C         6.42583578333557    3.51456964765610    4.54803491531853
H         7.30951932836099    3.54224152183183    3.91256886973118
H         6.34095215408589    2.52584254941534    4.99339780654974
H         6.55788464010347    4.23528863947224    5.35753959805794
C         6.33082193909689    4.52816260426718   11.17617568037170
H         6.63822728385832    3.52345806756032   11.45591908653630
H         5.26963501627394    4.50625134565918   10.92844407386035
H         6.45995797343286    5.18832296033667   12.03171461707090
C         1.75082414119193   11.13161845968112    7.33148612850400
H         1.89074135360342   11.91521499732171    8.07201332697172
H         1.48245283624233   10.21171131090272    7.85054489420800
H         0.91984572418217   11.40305690243698    6.68312604863156
C         1.50808311186261    2.93370888372478    3.84201353782160
H         1.66728571668348    1.95299352532056    4.28365599045279
H         0.83845125546776    2.83519995094516    2.99071743133507
H         1.01952352400137    3.56273879632335    4.58624717768070

