76
CSD_code = TUHMAK | q = 0 | S = 0 | Stoichiometry = C35H34O4P2W | MND = 6
W         7.45704377035363    1.68403640170464    6.01371805683197
P         6.25107818571325    1.51293289819440    3.86632115705710
P         5.54881857692074    2.70124484892847    7.23203137907570
O         9.17669826803152    2.11083280163033    8.57970755640013
O         6.91620495604899   -1.12058237155523    7.28602472746415
O        10.08371844655334    0.45525031048710    4.88371152571984
O         8.71017311964640    4.38943238282717    5.06866838455066
C         8.51293874911228    1.95076907725889    7.65809116544360
C         7.00623203345919   -0.10675154993136    6.75423287194901
C         9.08099872450329    0.88696534334339    5.23785346103643
C         8.15077925836045    3.43909830913487    5.38513864581307
C         3.96710640150264    1.88023146444130    7.69365257821611
C         3.78564899852971    3.16364322801770    6.90524667544304
C         3.60367837693169    0.57953077555078    7.02138016605468
C         3.10767291760630    4.33744906182682    7.56572781752324
C         6.02391181308324    3.64216307643631    8.71477361338247
C         6.28963776080815    5.01143839817308    8.60073035239072
C         6.69036618555476    5.72358317959174    9.72203492616256
C         6.86453881480745    5.10413632962832   10.94885030717158
C         6.66037928368232    3.73354395108060   11.02942588032153
C         6.26025746189948    2.98821239737561    9.93160068461441
C         6.19207573710858    5.72749876563303    7.28878794771611
C         7.30310605499546    5.87570266584332   12.15535678193218
C         6.11676927843887    1.50417036451767   10.08349960268035
C         7.37502088492562    1.91148734509926    2.48070224563915
C         8.33662323327915    0.94215231492897    2.20007602465276
C         9.27964282304182    1.15535570055468    1.21520415525221
C         9.27427360743960    2.34266509400974    0.49903423152284
C         8.31655459736903    3.30441493363521    0.76666892674318
C         7.36702186080846    3.09343987756179    1.75303350581359
C         4.88231594743228    2.69522745531723    3.61605720771965
C         3.59388198908159    2.32065323816226    3.25053550918038
C         2.59488375426295    3.27471438969507    3.14816533054564
C         2.86786028431808    4.60632511419520    3.41076931688289
C         4.14562187316626    4.98551327050303    3.79205441970112
C         5.14210156129471    4.03474290668701    3.90466015172750
C         5.54446307190705   -0.02369914047258    3.17561531220852
C         5.36753517520121   -1.13705483566293    3.98436524811526
C         4.84428353650516   -2.30687310832553    3.45999269417369
C         4.49816107180747   -2.36970061747838    2.12149193863603
C         4.67618885601400   -1.26164913357505    1.30622766892901
C         5.19735617549145   -0.09338945752270    1.82712516782143
H         3.67503938929813    1.94224348237976    8.73825473865800
H         3.46930541067792    3.01221136992831    5.87679544088301
H         2.52071119635244    0.45995107180760    6.97700682715689
H         3.99150592497450    0.56572943945395    6.00103603231829
H         4.01983832406106   -0.26910620409044    7.56221886260737
H         2.04554842407853    4.12304815787769    7.68790685091066
H         3.53406717995133    4.53246265843535    8.54791323825115
H         3.20324823119850    5.23525540812337    6.95868485093226
H         6.88268727375651    6.78338362170762    9.62673417293773
H         6.83165713039815    3.22942040330724   11.97046132444070
H         5.62107827683088    6.64939722896354    7.39112040095968
H         7.19285285505356    5.99049572916373    6.94465884270640
H         5.72175504284185    5.09937271821487    6.53341968644150
H         7.27111315539630    6.94588686060740   11.96721369144235
H         6.66535920702213    5.64827051441239   13.00799570188413
H         8.32403969716703    5.60278442605151   12.42140043779447
H         6.90945526488895    1.12106281438704   10.72359581509821
H         5.16291830666925    1.25020442714674   10.54762372735401
H         6.18067443540102    1.00344301166085    9.11786529530137
H         8.33159437839800    0.01584697787022    2.76169189000929
H        10.02234142465693    0.39943743946223    1.00748597021066
H        10.01503742679271    2.51554849138813   -0.26749869106310
H         8.30585347704453    4.22791758141455    0.20583716039046
H         6.62046255456781    3.85113868303343    1.94372700845109
H         3.36486232315808    1.28319109054013    3.05197405386715
H         1.59682615547445    2.97343821910321    2.86482768127406
H         2.08537997522069    5.34592825789280    3.32797712570448
H         4.36208137453064    6.02192527451542    4.00790288071540
H         6.13487715870334    4.32337316224176    4.22461176677112
H         5.65072679067593   -1.08375543263755    5.02594996408604
H         4.71190187924701   -3.16942642537559    4.09624998454304
H         4.09339880887820   -3.28222626775790    1.70943555140816
H         4.40941412006583   -1.31173370551829    0.26054238198912
H         5.34056394997298    0.77132205637908    1.19253401356869

