82
CSD_code = TUHQOD | q = 1 | S = 0 | Stoichiometry = C30H44BIrN3O3(1+) | MND = 6
Ir        2.77237500110399   21.46448881263354   12.42783018850738
B        -0.06561349306746   21.27039790091999   11.01562550674971
C         2.52815768283774   18.49730962839811   10.81907851253073
C         3.88419327400986   18.71517646309396   10.15508533574612
H         3.79097059731757   19.39371322926191    9.30959382643317
H         4.28567340135583   17.76837621577244    9.80376698248680
H         4.57825968779353   19.15335817815011   10.86645407470460
C         2.62018929161241   17.47579993555928   11.95528145454779
H         3.37539962098983   17.74963050697651   12.68260295549216
H         2.88198421700114   16.50452461234050   11.54183665675364
H         1.66315967221663   17.39190730504029   12.46605961914398
C         1.44205481364352   18.03960633680212    9.81203520268995
H         1.78838362294364   18.06794686674326    8.77388521652143
H         1.05126593048516   17.04502311548994   10.03148881536614
C         0.82134220454092   19.95495241627276   10.78713236859609
C         3.91755921305291   23.36900421171974    9.36019234769618
H         4.62978325673624   23.17089572243993   10.15540305911517
H         4.30981506545663   24.15550176766559    8.72084838714354
H         3.80504829296040   22.46064020928579    8.77176338943058
C         2.57548087225183   23.79370682210510    9.94839753287408
C         2.68676670153901   25.11598508810094   10.71229762865202
H         1.73399134121819   25.36411626471675   11.17547695206777
H         2.95339885339893   25.90839415674373   10.01670873975608
H         3.44384461079282   25.07584528555196   11.48650483146785
C         1.47959001254457   23.93313698983643    8.86077970839085
H         1.10556429161248   24.95315682375293    8.76221872986920
H         1.80928389396119   23.57585228181957    7.87977642537504
C         0.85151028692686   22.42614134681665   10.38996275448236
C        -3.71325870027646   21.16458195732210   10.08174791332513
H        -4.29337117784134   22.08619503212122   10.16958727140496
H        -4.31299978191672   20.32976749481480   10.45200238635251
C        -3.16270770075278   20.93000770242534    8.66105267441082
C        -3.57462180345193   19.56846180071845    8.10608063233555
H        -3.20185718860869   19.42825654800779    7.09517398976152
H        -4.65894530768361   19.50473001426349    8.07394008266117
H        -3.19690998453101   18.76607616455434    8.73637595991072
C        -3.54605354359380   22.05810958996041    7.70624425769342
H        -3.15196355710528   23.00949196283847    8.05741497098711
H        -4.62883278352774   22.12977463063981    7.64860223379128
H        -3.17009949483356   21.86844733559256    6.70463468004104
C        -0.75970833087374   20.77897157004352    7.88983281104563
H         0.24459668680009   20.82585058337146    8.29329531461810
H        -0.87953495341720   21.56521991287545    7.14421176966369
H        -0.90736729214811   19.80702554238837    7.41877757431714
C        -1.47127360486313   21.16016018133016   10.21501693816672
C        -0.38203125340724   21.51282448936957   12.57679156967826
C        -0.74241654675671   20.44740752312333   13.40035561850386
H        -0.73041505293075   19.44230984258723   13.00067536724641
C        -1.13386286477141   20.64658668888130   14.71181250058097
H        -1.41427837084898   19.80365530280375   15.32690135788634
C        -1.17322837715465   21.92843477008555   15.23657107687459
H        -1.48348988731307   22.08794640836136   16.25847869297527
C        -0.81628232103958   23.00159112181912   14.43929731491610
H        -0.85106712564529   24.00491963871563   14.83850805863012
C        -0.43179284856356   22.79152001725531   13.12642588907856
H        -0.18651394125157   23.64339874579318   12.50803838422745
C         2.33281739290568   21.20081255314564   15.41166659281890
H         2.77474479040310   20.77149341562659   16.31582071092381
H         1.25138123685546   21.15814931478401   15.52834509838443
C         2.76344929392821   22.67228694658046   15.25627001648196
H         2.00091913959697   23.30640003234098   15.70764910724559
H         3.69750781427276   22.85558085744787   15.78881510382531
C         2.94104370389043   23.07316638926980   13.80705522504924
H         2.28656546992605   23.87791580852722   13.48600753892163
C         4.15967072738003   22.92630692585097   13.12184694588933
H         4.38967227467979   23.65434746673083   12.35023312685441
C         5.41902644031411   22.35764300481096   13.73974893210587
H         5.81120590390646   23.06496174784575   14.47591219032012
H         6.16986227008386   22.25946535941346   12.95445084293017
C         5.17527611674261   20.98528832820532   14.38244030508710
H         6.07513291585997   20.37752154239363   14.28599359538549
H         4.96764267323335   21.09190791705407   15.44643093482897
C         4.01312746192744   20.27236309184716   13.71830558607280
H         4.30827694723508   19.36217579252017   13.20727762213184
C         2.70733544961397   20.34733792027704   14.22500585949399
H         2.05338488666786   19.49022420980025   14.08710146401326
N         1.98761582963732   19.78413165831397   11.28604106136328
N         2.03006258226428   22.71970124286328   10.79658920312780
N        -1.71164859626494   20.95904959812782    8.94731467221797
O         0.38866356896733   18.98853366266682    9.96340074628167
O         0.41746475965025   23.09796262956643    9.31312112468923
O        -2.55924616262153   21.28586151789011   10.91612189987824

