66
CSD_code = TUHRAQ | q = 1 | S = 0 | Stoichiometry = C24H32BIrN3O5(1+) | MND = 4
Ir        7.42064535543155    5.97888930507764    3.50632094423196
B         9.45164160614257    6.81759451730099    5.81613586144416
C         9.84698543371526    7.59859279203155    2.10015819596733
C         8.87617022547179    8.62114204952172    1.51241852049491
H         8.64540295831803    9.39573124314447    2.24074691525107
H         7.95024194050559    8.12587105645948    1.22422292230001
H         9.31157370128245    9.08751380968965    0.63284143618481
C        10.23186153889204    6.56196186871166    1.04631766589386
H        10.81258560514276    5.75489069133546    1.48860309324455
H        10.83057875287881    7.03740580930253    0.27371345810897
H         9.34570223478839    6.14407144464942    0.57876726138273
C        11.09981225857321    8.26109422587161    2.72370496471579
H        12.03545524930871    7.86144979151151    2.32631709519474
H        11.10391900163553    9.34855858829522    2.61981757372495
C         9.93591893738888    7.22857580225340    4.32445902202607
C         8.01135592792590    7.55386076866747    5.89067768416267
C         5.95175915277902    8.23815332405642    5.28193180355000
C         4.67003076595929    7.45470504211218    5.55495550372600
H         4.84122178648010    6.68754805681072    6.30726103584330
H         4.31055329823601    6.98388230244377    4.64401195472186
H         3.89973541881524    8.13205905791941    5.91484570271179
C         5.76489120772355    9.16704435420474    4.08255374549098
H         6.65253859026931    9.77675751060114    3.92552070068720
H         4.91556031920505    9.82443256938898    4.24724062618632
H         5.58223267752282    8.57720133413879    3.18553110680829
C         6.43931931934536    8.99177112606602    6.54377931203607
H         6.51653984258929   10.07132841886677    6.39554605937948
H         5.81868791076679    8.79459300434130    7.42082347434173
C         9.19345812046742    5.23183374034272    5.84963656489497
C         8.09983395872224    3.32835073474947    6.33738437785736
H         7.25839001652256    2.92767682253465    5.76991842038480
H         7.99831347221643    3.03684776228736    7.38653430276092
C         9.46904578070485    2.94220494268342    5.74241041005216
C         9.32553311570035    2.26471568318931    4.38191337710067
H        10.29910428688570    2.05940491753629    3.94566537321356
H         8.75649509726307    2.89872252743825    3.70258491427218
H         8.80267171899411    1.31963722639317    4.49793985880477
C        10.29638931187325    2.09569431656705    6.70463439017438
H        10.51346423050158    2.64328609073203    7.61919307698225
H        11.23262206410194    1.78442414391173    6.24975255438099
H         9.73956889378964    1.19924671511459    6.96351801375933
C        11.38807937068925    4.48968375077411    5.08170582971074
H        11.70192383493868    5.50773867422065    5.29918016681328
H        11.43080059042342    4.31524513030495    4.00518525268785
H        12.06872853655646    3.80015975688001    5.57791894196407
C        10.45472899882723    7.28174147338014    6.98772374694989
C        10.90914347006848    6.42387336269600    7.98630894048113
H        10.59420525236156    5.38823017029504    7.99365830846549
C        11.75239499382130    6.86367331417429    8.99199647004938
H        12.08713264242390    6.17386029186489    9.75282453844977
C        12.16180690205888    8.18440813463944    9.02502886034728
H        12.81898764210692    8.53110618002039    9.80767797644916
C        11.71447452507866    9.05778128614577    8.04905992841767
H        12.02081151389322   10.09296350774084    8.06924708046043
C        10.87218339293022    8.60938026766014    7.04789777499174
H        10.53130253182042    9.30776632511169    6.29852731483405
C         7.71918639961197    4.80462881946349    2.09090633838020
C         5.84682218828609    5.03528022502959    3.84774915015329
N         9.22903630870718    6.96798257766393    3.27821856597961
N         7.08596574552677    7.33986281548105    5.02027658214930
N        10.05276410006960    4.28888555035606    5.56989058248821
O        11.02822503175656    7.93909421650915    4.11360268758457
O         7.74744196951443    8.47488781922821    6.79426467257102
O         8.04754638933413    4.75890598698953    6.27126235287545
O         7.83326203385601    4.04428147973550    1.23967270147160
O         4.95893455049709    4.35195339537679    4.07920596083297

