52
CSD_code = TUJGIP | q = 0 | S = 0 | Stoichiometry = C17H25BN4NiO4 | MND = 4
Ni        2.03519371259564    5.10232733226074    2.08575603574775
O         3.08579863875259    6.61502392445627    1.92481918583229
O         1.32352824484744    5.74536778248848    3.66575472387810
O         3.27513544827131    0.68215354231091    1.14541817372912
O         1.70035283594698    0.75445237159404   -0.44337321388396
N         2.75270144185521    4.42405598928458    0.50550124552003
N         3.93982323732909    3.09286797478956   -0.73593612216288
N         0.99840639350943    3.56057232529663    2.23505488672349
N         0.60042714083700    1.44805634892736    2.55513542306049
C         4.15813157128653    8.68030313235489    2.23321289640711
H         4.70777002389638    8.30417452783794    1.37410908408144
H         4.85222610809038    8.91328880923585    3.03670542956579
H         3.63930903125170    9.59408705687395    1.94982904149800
C         3.16525138948610    7.62979723773564    2.67700352633927
C         2.42735285625387    7.83379261485503    3.85391023880640
C         1.54642977736358    6.82953411329992    4.28122744302949
C         0.77745962190702    6.98938433448799    5.57547326866154
H         0.07580242103948    7.81784767574504    5.50252051566125
H         1.45667504572822    7.17509912788046    6.40358490257111
H         0.22296615837985    6.07332963181566    5.76335260717388
C         2.62458271469704    9.09836978807183    4.64711298391789
H         3.55366648580275    9.05897667349348    5.21800933799205
H         1.80875160016333    9.25879441721771    5.34326030248663
H         2.67385011770043    9.96261622339292    3.98837963213498
C         3.24691643021119    3.19010493033442    0.41326138425224
C         3.11789403393129    5.11313174813971   -0.61256713420734
H         2.83414278817308    6.13415279302111   -0.77724053806735
C         3.85590553369429    4.28607138203967   -1.39734844105771
H         4.32086382486501    4.44387594121871   -2.34921423927395
C         4.67463777760648    1.95914188369498   -1.22071700985097
H         5.02241309617828    1.36489508152374   -0.37816212413361
H         5.53146473214679    2.30470675092522   -1.80012219501396
H         4.04214439473208    1.33680432415109   -1.85870396235583
C         1.51334641166450    2.33698381758618    2.12238656843722
C        -0.26835389749412    3.44537958907090    2.72514042087818
H        -0.89693919875328    4.29642921215394    2.90012296186319
C        -0.52742521085189    2.12686495603424    2.92287310958619
H        -1.40015246725997    1.62578506358426    3.28954179644752
C         0.74609412295842    0.02330391963667    2.65367475702151
H         0.43736478253505   -0.46103842036440    1.72414128318704
H         0.12462961659009   -0.34679726069220    3.46949769490799
H         1.78761436640265   -0.22320304745591    2.84980377907054
C         2.56879234989946    0.17682068133320    0.17497813853965
C         2.96160436759083   -1.26273651702639   -0.13071358642533
H         3.82515570008309   -1.25921645132515   -0.79206404323237
H         2.14227162270383   -1.77066317082029   -0.62989919636928
H         3.23231978943171   -1.78018795574713    0.78441150747797
C         4.04111911441922    2.50387969490267    2.82142768103588
H         3.91145660652303    1.87226175387218    3.69617867724583
H         3.81795324264692    3.53788255453090    3.11709006144732
H         5.08772867813206    2.45892762096745    2.53258022776813
B         3.02834537427742    2.11256616898256    1.60022087204950

