67
CSD_code = TUJJEO | q = 0 | S = 0 | Stoichiometry = C21H13BF21N7NiO3 | MND = 5
Ni        0.56158741482595   14.87208484988289    4.15197023701825
O         0.01779640205012   15.04461014094897    2.40063422913066
O         1.62203751832833   16.05946175483776    3.27566156236291
O         1.27789351404985   16.26959368979099    1.17262015145232
N        -0.54009026927700   13.47328059540303    4.74608683805075
N        -1.16486256352520   13.50187597606556    5.92312113386620
N         1.38767533084766   14.90985623649740    5.87277322104310
N         0.65696827479248   14.80875186756593    6.98669641297762
N        -1.11441316548435   16.24805385908324    5.09650053587896
N        -1.46375859418253   15.91564389451742    6.34121183666271
N         0.98813698895960   15.81816976549099    2.22204367684085
B        -0.87703931072031   14.63212208140235    6.93458714632795
H        -1.31566261518771   14.38408228276192    7.99387298860818
C        -2.01554484430329   12.46600075643922    6.02231637023086
C        -1.92294428155159   11.72656016965705    4.85294584796471
H        -2.44781997162720   10.83236119142913    4.58955178342676
C        -0.97935813732875   12.40223368787389    4.08529869135707
C        -2.88007670574394   12.21113963694558    7.19983737419495
H        -3.56635296861332   13.04098447148840    7.35280610263808
H        -2.28127138771046   12.09353493097550    8.10011276598530
H        -3.45513871129866   11.30481585705595    7.03712333223277
C        -0.43289155381669   12.02368625468644    2.74913008718308
C        -1.40457442258928   12.38897428144834    1.58148263463747
C        -0.70938014979330   12.49290580843052    0.19394853912805
C         1.43677386172462   14.93806139857371    8.07292218835046
C         2.73822472761199   15.12590223724649    7.63838013270958
H         3.62118416781283   15.26065591546775    8.22690828679907
C         2.65716798633959   15.10127766188634    6.24825119463780
C         0.94347534042363   14.88618301663185    9.47040616231956
H         0.22504995680753   15.68206248992269    9.65214497811835
H         1.78008166424330   15.00514814092479   10.15218848942828
H         0.45587911494087   13.93524752323175    9.67194109277364
C         3.82210008052788   15.25571277819775    5.32014429498866
C         3.96456495907499   14.06261017088817    4.32218854395929
C         4.80620971634252   14.39060286959498    3.05349888637948
C        -2.38304437774710   16.77340218371469    6.82759476071810
C        -2.64613387372214   17.70641537578813    5.84068267304372
H        -3.32081821423842   18.53567730037116    5.86917748219724
C        -1.82039908395275   17.32715476561361    4.78018225998646
C        -2.96807535205722   16.67544989746158    8.18793808822175
H        -3.48140975874234   15.72545232453192    8.31934091425708
H        -3.67946358202080   17.48239635849062    8.33470333426761
H        -2.19172679357654   16.74922150052712    8.94652632132575
C        -1.78425454727952   17.90230417660470    3.40654700862543
C        -2.88803236259549   17.22890366733447    2.52504075295942
C        -2.62177755869421   17.30613798101902    0.99670479956914
F        -0.21520023014711   10.68812007849100    2.67555815880888
F         0.77885916087786   12.60047747168310    2.55485046993359
F        -2.33896212118231   11.41301527847798    1.50914117158419
F        -2.07388192672973   13.52221173078521    1.83709752325765
F         0.18188359706602   13.46889105798383    0.14790432062949
F        -1.61210666963802   12.70725864260655   -0.75765589209203
F        -0.08321314453707   11.35093947843040   -0.09261781273099
F         3.80836795280634   16.42117647312771    4.64348075948819
F         4.97178272696080   15.27939466675080    6.04222687654099
F         2.74663240968632   13.62299924687630    3.91248719219465
F         4.52539382925867   13.02801725682769    4.97514835123325
F         4.09346741980908   15.10023586529864    2.19307531896154
F         5.90605645659888   15.06880854392694    3.36005970423517
F         5.18003968258219   13.26518349006462    2.45018249509195
F        -0.58084102849083   17.72825962141228    2.81471208504938
F        -2.01783373786998   19.23392619020228    3.40377961158271
F        -4.06740355945948   17.82972558674973    2.79105178506752
F        -3.03917834948609   15.93633658208814    2.87418898484783
F        -1.65849699333229   16.47449954925643    0.63205721404396
F        -3.72200768564573   16.97923895738560    0.32057296511869
F        -2.27844965145008   18.53862045686198    0.63235257231772

