41
CSD_code = TUJPUJ | q = 1 | S = 0 | Stoichiometry = C18H18CoN4(1+) | MND = 4
Co       -1.12414643153861    2.16868874066835    3.21726078013424
N        -0.25682201180260    1.98662265782454    4.76674892544268
N         0.50314429291796    2.29988141943148    2.38848408409315
C         1.19698703406241    1.97991024955334    4.64236626071568
H         1.57021716696423    0.94822252449219    4.65111086806463
H         1.65639010940088    2.52935712776922    5.46987044668148
C         1.55768312211928    2.63984226417943    3.31892972502760
H         1.57557230945405    3.72897354307946    3.44327033144419
H         2.53960498202310    2.31658119918545    2.95759718891845
C         0.80538212122189    2.17844741910339    1.14160947921804
H         1.83850517042584    2.32302572651762    0.82747831703534
C        -0.12891058696505    1.83776789904459    0.13027972696403
C        -0.72855252122598    1.70277896641102    6.00893102201462
C         0.10182066699077    1.27522544972009    7.07432798687929
H         1.15058891375622    1.09343693154030    6.91121939443655
C        -0.39485349158511    1.05167985035170    8.33455561077514
H         0.27391528585635    0.72316697190372    9.11507510605533
C        -1.74827324718159    1.23964392480921    8.61919714219526
H        -2.12224297579191    1.07395311057983    9.61647554411548
C         0.34518721808640    1.62003844806315   -1.17249550305212
H         1.39985761453829    1.74719977280132   -1.36517905461636
N        -1.99147007828590    1.98662135036880    1.66777358071686
C        -3.44527938876514    1.97990981432874    1.79215537331202
H        -3.81851059042851    0.94822260075073    1.78340935058327
H        -3.90468117732343    2.52935796008696    0.96465136477213
C        -3.80597606327940    2.63984113076589    3.11559208923956
N        -2.75143666699845    2.29988123422991    4.04603721514658
C        -3.05367422618866    2.17844912110848    5.29291220123014
H        -4.08679720189653    2.32302887443121    5.60704318459655
C        -2.11938140028635    1.83777070643839    6.30424213742109
C        -2.59347974705271    1.62004146573426    7.60701763192762
H        -3.64815030163855    1.74720335471793    7.79970120339585
H        -3.82386705192943    3.72897239210215    2.99125126889068
H        -4.78789743936197    2.31657869278739    3.47692487979909
C        -1.51973958730161    1.70277719025143    0.42559136434745
C        -0.50001976240255    1.23964170382918   -2.18467486182876
C        -1.85343964204826    1.05167938602733   -1.90003328839407
C        -2.35011361280052    1.27522536337702   -0.63980540122940
H        -3.39888207822084    1.09343779110967   -0.47669728358341
H        -2.52220887863985    0.72316651552079   -2.68055242756631
H        -0.12604984687711    1.07394915500410   -3.18195296532012

