42
CSD_code = TUJPOD | q = 1 | S = 0 | Stoichiometry = C18H19N4Ni(1+) | MND = 4
Ni        0.05155975456304    0.41019761516270    3.38248237534499
N         1.49715136844587   -0.51509330662492    2.77251233524451
N         0.28004659850517   -0.53947692524780    5.14017014589117
H        -0.43863850893019   -1.25935103674059    4.97541193271652
N        -1.45497072902247    1.29155526899198    3.99653461869174
N        -0.14757358899486    1.35972186805542    1.79227403341862
C         2.12157781103122   -0.39105890984626    1.63786388881166
H         2.93881504874200   -1.07878353506348    1.42541913023388
C         1.86456234957076   -1.61789927174671    3.65550493369287
H         2.91784241042786   -1.88969282796095    3.52580498855748
H         1.25512970378724   -2.49793120599309    3.40655011647606
C         1.60101478779428   -1.19585144955214    5.10014441234430
H         1.65123831175948   -2.06963189509096    5.75910857215873
H         2.34937307810568   -0.46031684014234    5.40843066862153
C        -1.83894536935252    1.47275518060184    5.20311950070817
H        -2.75483802282308    2.03653135748921    5.38844101056096
C        -2.26229732867839    1.78283180236227    2.89817428305035
H        -2.94827308322181    2.57557630399323    3.21618033835936
H        -2.85180897114739    0.94039055457019    2.51517869628486
C        -1.30256734575160    2.25878978543187    1.80632983514640
H        -1.81447406494974    2.23742346866567    0.83788964425455
H        -0.98388834412246    3.28774386726810    2.02060930174660
C         1.83911079885457    0.57165601059100    0.65173359481990
C         0.72296896242290    1.46274913385216    0.77238944257543
C         0.57910443966526    2.43177686659122   -0.25502284461461
H        -0.21164478644595    3.16028487142319   -0.20001223998235
C         1.43308246548950    2.48193870565339   -1.32309785612458
H         1.28483510889707    3.23735348630127   -2.07990546680351
C         2.49622190816162    1.57955071173818   -1.45151767789728
H         3.15265374866253    1.63364966467480   -2.30428107377331
C         2.68992003830162    0.64784773609462   -0.47337048960602
H         3.51350410015515   -0.04730009564630   -0.53812750562962
C        -0.05321498634519    0.13369231647779    6.36625702404264
C         0.63007204191152   -0.12412017915183    7.54679546655560
H         1.45398822003625   -0.81765156662833    7.56721973046091
C         0.26467523743494    0.49364020163331    8.73287644571668
H         0.81619609614947    0.27490697754351    9.63351366981062
C        -0.80764608485952    1.36906278304834    8.76686715766724
H        -1.10034109918662    1.83835599391171    9.69197689594411
C        -1.49627794603547    1.63840779877908    7.60284768494313
H        -2.32472896898500    2.33011627792620    7.61639539541539
C        -1.12581516002242    1.05075243660326    6.38772788416415

