27
CSD_code = TUJQIY | q = 0 | S = 0 | Stoichiometry = C6H8N10S2Zn | MND = 4
Zn        4.21289178113022    1.35603923870908   12.69405702265796
S         8.39129196971254   -0.14564399229503   12.60805388475435
N         5.74560651844227    0.39735709594126   13.16662423970503
N         3.49061427226343    2.42471987281440   14.12353272763917
N         1.77963826173701    2.96128300886509   15.73711071579990
N        -0.01308685743448    3.20161872402963   17.07563869458165
H        -0.91983004494570    2.93388110322640   17.41168304312884
H         0.53561436617616    3.85812218063651   17.60125148750992
N        -0.13626663347937    1.65757600935582   15.36926499575243
H        -1.07935781970320    1.43879832447858   15.64181232636894
H         0.20442232249938    1.18082189425048   14.52956318251790
C         2.59478314528461    2.59628822886562   14.84363061229820
C         0.56156368411076    2.58344186807960   16.02570115793380
C         6.86999307252874    0.16260187982729   12.93125177703216
N         2.67977354449621    0.39846470913221   12.22079810504640
C         1.55550143086239    0.16282228562766   12.45614504053552
S         0.03406491916657   -0.14549650651627   12.77891012420549
N         4.93545923142325    2.42584137119739   11.26554254861936
C         5.83103046512354    2.59682634325829   10.54499051073954
N         6.64577527824079    2.96132295509647    9.65093796863184
C         7.86327563480746    2.58246998014164    9.36125317291283
N         8.43753753225147    3.20016118893669    8.31080683563271
H         9.34359781608750    2.93132568841299    7.97377788593581
H         7.88882786627645    3.85684573537176    7.78542930456239
N         8.56098069262570    1.65613305906233   10.01715263764161
H         9.50367389134260    1.43664959569107    9.74378436816360
H         8.22072365895704    1.17982815761770   10.85729562968549

