41
CSD_code = TUJQEU | q = 0 | S = 0 | Stoichiometry = C18H18N4Pd | MND = 4
Pd       -0.00018870760269    0.00109302296752   -0.00027556999946
N         1.94964072765797    0.12654101967728   -0.36377217456985
N         0.46104127157269    0.51056921147747    1.79290124367879
C         2.54264947233603   -0.12677048906760   -1.52891063807234
C         3.93276522945340    0.10641996546972   -1.74466922241580
C         4.56659026487193   -0.24237836080791   -2.90298244946746
C         3.86242119142667   -0.83580648280047   -3.95576248469372
C         2.51451042498585   -1.02166877544248   -3.81927819587910
C         1.80919421390357   -0.66534980436516   -2.65186729714288
C        -0.39410394710515    0.80802839080916    2.71580436871561
C         1.88672972710685    0.52234422467436    2.05669173470818
C         2.67454271378694    0.72635654007952    0.74744357653206
H         4.51205994126304    0.57767757071537   -0.96663222229968
H         5.62545473576489   -0.05236189466475   -3.00919554629272
H         4.37262921005545   -1.11911686588354   -4.86308942941081
H         1.95180497225095   -1.44681264442799   -4.63950559981188
H        -0.00607280256671    1.16569136064041    3.67504483521019
H         2.15229229035240    1.29700388026110    2.79053464077098
H         2.15598784077336   -0.45564825915343    2.48246234578099
H         3.66656340863153    0.27249390765937    0.87499973591538
H         2.81053472452994    1.80449685444778    0.56430814160767
C         0.39410548311292   -0.80810366291652   -2.71577715562379
N        -0.46106513571239   -0.51054149256096   -1.79291712236372
N        -1.94962217491426   -0.12646082360564    0.36377189742543
C        -2.54263409285945    0.12666517425258    1.52895712234979
C        -3.93275217106681   -0.10649688194095    1.74467408714459
C        -4.56656834890177    0.24219512473395    2.90302319349059
C        -3.86240927159532    0.83558733573636    3.95583035206109
C        -2.51451175792491    1.02152772455399    3.81933774618891
C        -1.80919364488411    0.66525223377100    2.65191696602571
H        -1.95181609446319    1.44666512275112    4.63957712177226
H        -4.37261344134434    1.11881053075570    4.86318481556044
H        -5.62541720602756    0.05211138398765    3.00924553025254
H        -4.51204316957457   -0.57769735339886    0.96659898313654
C        -2.67452346904700   -0.72624909229302   -0.74746344146494
C        -1.88674064686010   -0.52227247212891   -2.05673657169929
H        -2.15230753006190   -1.29697026327906   -2.79053313261297
H        -2.15597775770515    0.45570334642818   -2.48256700554613
H        -3.66655840073380   -0.27241433780677   -0.87498907940411
H        -2.81048094340835   -1.80439300785435   -0.56434789537888
H         0.00608287052303   -1.16572096145120   -3.67503620417827

