77
CSD_code = TUJSOI | q = 0 | S = 0 | Stoichiometry = C37H31N5NiO3 | MND = 4
Ni        3.61592600848758    3.08173885313436    4.05067104411553
O         1.93132562430028    6.47468589760429    4.50722800036655
O         4.13796331493037    1.42717979540643    4.72937221428258
O         5.90531164962292    0.11960113198788    5.02055628108152
N         1.70815792473150    2.87233802056704    4.56721323156771
N         3.12405252070488    4.77195931650134    3.51336183104016
N         5.31242304506604    3.20717830774907    3.33600848930299
N         9.43672224581382    2.77102830424573    7.55351364318212
N         9.87551815529528    1.64524527544210    3.53247633722960
C         1.90479303261559    1.41642246539126    2.62969813244577
C         1.88391391536997    0.06045323385386    2.92993642231117
H         1.16622467076337   -0.32132735893597    3.64140135465067
C         2.78454519506949   -0.80334907137510    2.33157174430416
H         2.77146926783017   -1.85225734089627    2.58539291734522
C         3.70811508225930   -0.32413157884508    1.41901485851913
H         4.41574450658018   -0.99931411290514    0.96188270670713
C         3.71625313565282    1.02017962204253    1.08793394743313
H         4.41287076314554    1.39375702632441    0.35095437901079
C         2.82582601127562    1.89431532769734    1.69320457803162
H         2.79812399226909    2.93412100481566    1.38071545694799
C         1.01202666682067    2.39629831882695    3.35267289232701
H         0.05580500922647    1.93326911774462    3.62893878208668
H         0.81548852888789    3.25405911004010    2.70274868657907
C         1.45883624927036    2.01114152238774    5.72970123344851
H         2.00750061717288    1.07477654747760    5.63985090530093
H         0.38174223962682    1.80997346184842    5.81860470409032
C         1.94032367347028    2.87536910176468    6.88202402523633
H         3.03230118798813    2.89592240072676    6.87082583043561
H         1.60290553837109    2.51828858659894    7.85219332312456
C         1.37337420039593    4.24997997408585    6.52368869954290
H         2.00855147329024    5.06463695784493    6.86527086897641
H         0.38332238612322    4.38778230150907    6.95849698491387
C         1.28075842375504    4.22338208643318    4.98539795709293
H         0.24426441295937    4.41499955946746    4.67225267637924
C         2.14962021131371    5.29400876662122    4.31111057863216
C         3.68818590715452    5.49482476451973    2.49246458912200
C         4.92311941308605    5.10294261142731    1.90227919399194
C         5.39644534875324    5.80412075480473    0.77942157728191
H         6.32003759547004    5.48509803610231    0.32070199118118
C         4.71128488654423    6.86632636361407    0.24589783016583
H         5.09541957432571    7.38443897094088   -0.61878160288534
C         3.51322384145500    7.26302515294193    0.83337461388290
H         2.96067704142818    8.09605512836387    0.42537085751574
C         3.01636652309449    6.59282692458898    1.92369749352177
H         2.08433885693264    6.91150717374243    2.35972445199955
C         5.73502162954438    4.03015324926744    2.42982863564130
C         7.12963668368783    3.93056627613366    1.91841452950242
C         7.49934543074520    2.89506560821587    1.06658428983029
H         6.75815073103433    2.17599251704384    0.74781448286016
C         8.80647635374785    2.79275664987756    0.62616291708165
H         9.08650362478836    1.98424291579907   -0.03120395610950
C         9.75339920940048    3.71598380460979    1.03538899177428
H        10.77535495745601    3.62430663708058    0.70316654238056
C         9.38727303375382    4.75617445819036    1.87198558268386
H        10.12007418354579    5.48253482731108    2.18901296527375
C         8.07958926899093    4.86894682183498    2.30916706184419
H         7.78968257149381    5.68769931799215    2.95327092368545
C         6.22065924781902    2.23508387771860    3.92246265425826
H         6.88235343630833    1.79133487370237    3.16849412340868
C         5.36553943862893    1.13306238001938    4.61215708931053
C         7.08767372731205    2.91843231069753    5.01147716069644
H         7.59354263350585    3.78001770516725    4.55494667208992
C         6.20757117063102    3.42776745399198    6.12871968554668
C         5.99177959079485    2.71634845915593    7.30236544916475
H         6.42679067775080    1.73952292517600    7.44568694132824
C         5.21276334203609    3.25585224456146    8.31215868539748
H         5.07017783358993    2.69937356655867    9.22618396489573
C         4.62176332491935    4.49831680154863    8.15718326387031
H         4.02429122845112    4.91706248682484    8.95324173680068
C         4.79663579198830    5.19745999749323    6.97459326758035
H         4.33873524813873    6.16593667973882    6.83581269268953
C         5.58202448104934    4.66469987390567    5.96588436073196
H         5.76515124210883    5.25216821010747    5.07551391915733
C         8.17326154535924    1.91349065039594    5.46440688319952
H         7.70184057442971    0.93674794751983    5.66544446530704
C         8.87272227848477    2.38314632848249    6.63909394682462
C         9.13291563983993    1.74247432965971    4.39524335753548

