82
CSD_code = TUJTOI | q = 0 | S = 0 | Stoichiometry = C39H30N2O4P2PdS4 | MND = 4
Pd        2.62357820376311    4.47174837041671    5.28833905262509
S         1.44750746442528    2.40606341306660    5.38314700433087
S         5.14683335388747    1.30807743274069    6.70509231189954
S         1.42421046148505    5.85483957815984    6.83215980800237
S         1.02394571517675    7.77295074130226    3.25236513583572
P         3.68104849316340    3.88168191690458    3.36831410531182
P         4.17271582567363    6.10396420096474    4.89304294867914
O         6.31210333261821    1.50891135841287    5.88943267689073
O         5.33714722805948    1.38978939651500    8.12549565088243
O         2.23642034830215    8.02472262463013    2.51643013769127
O        -0.15409257305626    7.53325593836868    2.47126771192784
N         3.91451513939730    2.32196772564294    6.22693295851758
N         1.30305478118879    6.53048866444938    4.31312426885086
C         2.87083155294173    1.63253711239868    5.86751602288969
C         3.00777339738537    0.17385025101303    5.87197126081223
C         2.07338477516213   -0.77904019948153    5.49491725853237
H         1.08741782880467   -0.47570123663868    5.17768634267080
C         2.44644152672415   -2.11348638551225    5.54142191378185
H         1.73602748634118   -2.87458948495062    5.25502430160565
C         4.46058290586804    5.56546896966709    3.14835340157951
H         3.79984863762512    6.15750690401817    2.50186930438934
H         5.48893814515485    5.59454963736593    2.78146126395717
C         3.71930905325953   -2.48699480305057    5.95048661579008
H         3.98588759252277   -3.53281740518376    5.97830308900939
C         4.65517115279651   -1.52979601945656    6.32960862653387
H         5.64610101192025   -1.80589595966665    6.65332953100970
C         4.27741987352911   -0.21081908204724    6.28038843747957
C         1.10791810691655    6.90990413520876    5.54617449305756
C         0.72789054714952    8.31096435614091    5.73757873414727
C         0.48081571375648    8.97879604157560    6.92762876112397
H         0.49706168639040    8.44079063941765    7.86292399709909
C         0.22051816385228   10.33896872915456    6.87286722050990
H         0.02374955674404   10.88006009186914    7.78635481414643
C         0.21270271543566   11.01807768896047    5.66245417632202
H         0.01338656652578   12.07888980882722    5.64598845550460
C         0.45399343111362   10.34693637709539    4.46804892783128
H         0.44548354406915   10.86121700008916    3.52018486104708
C         0.70682112994427    8.99946529514987    4.53055238987632
C         4.91154894330698    2.59011280792628    3.10570516359981
C         4.41157718392600    1.30436075231660    2.89732155629845
H         3.34069673692793    1.16016754151855    2.81280340266780
C         5.27687035115051    0.23348280910802    2.80612212411325
H         4.88665446649225   -0.76288126146512    2.65554716075237
C         6.64327086974222    0.43899774567803    2.92040326882805
H         7.32000752734764   -0.39965969499582    2.85600694422110
C         7.14014496697519    1.71193246751733    3.13819789954696
H         8.20228750371802    1.86529102353038    3.24946906342805
C         6.27886444710365    2.78797920997523    3.24791785250107
H         6.67000184732814    3.77084386200795    3.46548225272836
C         2.52691259164160    3.79475070185338    1.97244129714838
C         2.95589747261166    3.50390875201238    0.68091956551157
H         3.98842228016967    3.23272791907101    0.50509565762571
C         2.05217049796780    3.56284434643864   -0.36365449825586
H         2.37804458374040    3.33703806683685   -1.36860263511485
C         0.73392873681121    3.92210377388724   -0.12510770879122
H         0.03800256373957    3.97871885062444   -0.94890747640555
C         0.30649407142127    4.20698861719993    1.16167217177555
H        -0.71693749261109    4.49446969789569    1.34461930762088
C         1.19937175680071    4.13605025197032    2.21589283429360
H         0.87088258169127    4.35109591245590    3.23435986181360
C         5.65178353791074    5.54136089583862    5.78372082261925
C         5.45213484309092    4.76735209644577    6.92352507185198
H         4.43494949547021    4.56751269038993    7.27297225132987
C         6.54117455933415    4.24856079210242    7.60167244468716
H         6.38742527934367    3.62353133511292    8.46669361364358
C         7.82234854144102    4.51151807274162    7.14564494580156
H         8.67264046798433    4.09288810595178    7.66234505315756
C         8.02279173425113    5.31273109025163    6.03155649957040
H         9.02602822768145    5.52578994510608    5.69091123806386
C         6.94000784884389    5.83489015087322    5.34927768158641
H         7.08679745123464    6.46790274336907    4.48280936259760
C         4.22537023400511    7.91250660288973    4.99946219137279
C         4.51125424487753    8.74322047184170    3.92444672752627
H         4.76524176515568    8.32561591756453    2.96344699719640
C         4.44386977974273   10.11518509473939    4.09102357689827
H         4.65703889732476   10.76417129141208    3.25497776060000
C         4.09308862175171   10.65714228676778    5.31658262947643
H         4.02767926820044   11.72877959183230    5.43346018499482
C         3.83053892957420    9.82855395000312    6.39617019329944
H         3.56718457205015   10.25103086038620    7.35435976365582
C         3.89508888098860    8.45781258274624    6.23888438817207
H         3.68578445556527    7.79451545498096    7.07001356382036

