29
CSD_code = TUJXOM | q = 0 | S = 0 | Stoichiometry = C12H11Cl2HgN3 | MND = 4
C         2.38593106349008    6.54740940355393    1.20233536651726
H         2.32383366587098    6.00536087896112    0.26710770886371
C         1.82383613328925    7.80924589651258    1.32970648428618
H         1.31459284514039    8.26431838756959    0.49557611268280
C         1.93262489449071    8.46040360825691    2.54950005760766
H         1.50606658795512    9.44222817089577    2.69123862604587
C         2.59924077487778    7.82785477461210    3.58105059664799
H         2.70601178141614    8.30290866114049    4.54443997769335
C         3.14000654184561    6.55457460898408    3.37106479211200
C         3.84635062662076    5.88920110248261    4.44846783708724
H         3.90058756477935    6.45795551471029    5.37836198910840
C         5.05503589647140    4.06266825385361    5.30267264773577
C         5.53223418800048    2.77947593694989    4.99165145184587
H         5.33806148924330    2.38019074937775    3.99909967484511
C         6.23152132290774    2.03204639155600    5.90287883999126
H         6.58691734915432    1.04685882705917    5.64091283366335
C         6.49451934745506    2.53764201815865    7.18443224298066
C         6.02494235670868    3.82086711725773    7.50301461541467
H         6.22283657534617    4.22191032089864    8.48670184621453
C         5.32326223379335    4.56459112385797    6.58838074074129
H         4.98404402906432    5.54756238638116    6.87613634710174
N         3.02248318274297    5.93636959541238    2.18764156016591
N         4.36661679803313    4.72589536988711    4.31231823988922
N         7.15638474923561    1.79112172110825    8.10413901133420
H         7.44926055582981    2.20777431000411    8.96941997987333
H         7.58917682847773    0.92945244814449    7.82372074854450
Hg        3.81402302373632    3.62088326601855    2.11115706075238
Cl        5.70151693911480    3.58537164917376    0.82713749767588
Cl        1.92488065490979    2.47715750722040    2.69983511257501

