65
CSD_code = TUJYEE | q = 0 | S = 0 | Stoichiometry = C30H26N3NiOPS3 | MND = 4
C        -1.89677003879764    2.32078208406616    2.10841016495141
C         0.90527744343376    6.65127379284087    1.23831223235635
C         2.19788270986063    7.15595659090554    1.25886604158561
H         3.01439358969320    6.54548735365690    1.61514224466648
C         2.43405058713217    8.45231690467377    0.83325458390619
H         3.44022626574941    8.84511631528863    0.85046952598646
C         1.38925794740231    9.24710262634729    0.39268126437773
H         1.58137646561517   10.25769122450358    0.06371360599687
C         0.09442729569513    8.75213410217175    0.38729282604973
H        -0.72363649957391    9.37586945335647    0.05785634882369
C        -0.14703198598010    7.46155579873397    0.81605418880168
H        -1.15711397087224    7.06749319725084    0.84376548294194
C         0.41233592178346    4.01831759671827    0.23898659975463
C         0.62175210482048    2.64294641768408    0.31460869105197
H         0.83845418646014    2.18898293082165    1.27140103611562
C         0.53893516466324    1.86723588154612   -0.82526335775700
H         0.69195653562435    0.80075946695023   -0.75954121402847
C         0.24132843615943    2.45403147575288   -2.04497747923677
H         0.16586402114169    1.84472673774346   -2.93320783227236
C         0.03232929294645    3.82065590728913   -2.12333714148353
H        -0.20161146604899    4.27934788168373   -3.07303215015509
C         0.11190452809790    4.60415369667308   -0.98568439518519
H        -0.05666910244117    5.66994514739520   -1.05041934548524
C         1.89892392960773    4.30157621987452    2.64392441094814
C         1.75373332376177    4.05136051276295    4.00556057038692
H         0.78288303149278    4.25123035888264    4.48074863159998
C         2.80727065224859    3.53430855960901    4.73569213649207
H         2.69214964123547    3.33647088371141    5.79085055883563
C         4.01037462619764    3.26220956115519    4.10383322216722
H         4.83598249887837    2.85631433981433    4.66942521154001
C         4.15464716805643    3.49421396151864    2.74455347250747
H         5.09029641443111    3.26578085624821    2.25537129585812
C         3.10232310805730    4.00975277914752    2.00934814685286
H         3.20298854537921    4.17008463734550    0.94456774514812
C        -2.11366287965679    6.47607043955939    5.14446019981713
C        -2.20079194103101    8.71200809732164    6.10792342436037
H        -1.46443027809640    8.88274615175545    5.31711070914153
H        -3.05315395259465    9.38264046651546    5.96157757675350
C        -1.58486767562035    8.97593308514412    7.44213409497970
O        -0.41579553506182    8.37271740411296    7.74097038064014
C        -0.08109046542510    8.74237009362792    8.98559003322946
H         0.83223392314549    8.34958349679975    9.38570365592534
C        -1.01681827109606    9.58059448936242    9.50675640104608
H        -1.01141782367829   10.03355403663445   10.47651620541523
C        -3.78416453889742    6.97380665910918    6.84835559475636
H        -3.52256700735650    7.19748870248737    7.88877703387401
H        -3.93861114772558    5.89648817351164    6.74517475542723
C        -5.01218235026988    7.72223494869145    6.45349997733555
C        -5.74185275773550    7.67102485590996    5.29233243243834
H        -5.55675887613340    7.02067427383719    4.46102629850073
C        -6.77766002844726    8.61821874099275    5.40361570536640
H        -7.52907096006721    8.82686621755249    4.66878343360232
C        -6.64720105984001    9.21990333003877    6.62484845334091
H        -7.23782614932703    9.98433816666843    7.08925984468488
N        -1.41144439150620    3.10434751762903    2.85072409143533
N        -2.65737629217289    7.33794513658651    6.00258270170310
N        -5.56785212483318    8.68077227276240    7.25041608096359
H        -5.25391730541265    8.91061847969586    8.17882646862697
C        -2.00271315939330    9.73003061722553    8.50077128286055
H        -2.88793192546439   10.33134866661121    8.55073598318246
P         0.44737553439809    4.97417287529682    1.78170735314537
S        -2.46771268972206    1.16416006760920    1.20350193382585
S        -0.82296593304408    6.89052430174617    4.11154997710342
S        -2.63817109723868    4.87362895950538    4.97611746232809
Ni       -1.09699321387392    4.84160402159985    3.31202313025332

