43
CSD_code = TUJZED | q = 0 | S = 0 | Stoichiometry = C11H24Cl4N2NbP | MND = 6
Nb        6.67800711050211    2.38404304807198    6.20844972131993
Cl        6.84572892855205    4.71440141032449    5.90695578479920
Cl        8.90679013664275    2.32085949631084    6.95437905464007
Cl        4.78244191481187    2.43009529454725    4.71352539715597
Cl        6.86140415868879    0.04649244667907    5.65714615027568
N         5.76859349505531    2.23963371528465    7.77335293021839
P         4.80994330584776    2.23650221383631    9.03240477736408
C         4.64955998752757    3.99637482903957    9.61108677162248
C         6.06054875003712    4.54745561878973    9.79440050128355
C         3.90845775686224    4.77188423034222    8.52620180004751
C         3.16469280091212    1.59107550101724    8.46679288915790
C         2.13415496684749    1.51743412447872    9.58557828571234
C         3.38434224406553    0.24612410540401    7.78082392767902
C         5.49719599348102    1.11141620093867   10.34947920841634
C         5.15498707491208    1.57238683248698   11.76161461510848
C         6.99830186193413    0.95214300545762   10.12943709201547
N         7.77537668208641    2.45289225113771    4.04485620863449
C         7.80517008606256    1.98181621613579    3.00325593105074
C         7.84864870116092    1.39736103667687    1.70269847667497
H         4.09849080415050    4.03029523375253   10.55615602502099
H         6.01792375831388    5.60762748221225   10.03684262228877
H         6.59139518410976    4.03702547651432   10.59513643572274
H         6.62703042336018    4.42763488469292    8.86701621301145
H         2.85692386503598    4.49650364214081    8.48012871319175
H         3.96987805866753    5.83964027891397    8.72733218127771
H         4.37227234156826    4.58216052955759    7.55416504613402
H         2.85073185010532    2.31216748724563    7.70117217790447
H         2.02031745152556    2.47916393495841   10.08216546792089
H         1.16744298156324    1.22980004912711    9.17642982733146
H         2.41947826969546    0.77236550819724   10.32539454663145
H         3.64933060350765   -0.53001817259421    8.49655055213058
H         4.18187361597174    0.32839962691200    7.03813473232399
H         2.47442794516107   -0.06149047418607    7.26992214267389
H         5.01643181416339    0.14303105961881   10.16281972746762
H         4.08473975394217    1.72800419380546   11.87969308427424
H         5.66869695030577    2.49836240605594   12.00683509359903
H         5.46950393982411    0.81540043539441   12.47812679718513
H         7.39796720904772    0.20357702273160   10.81083345296257
H         7.19969179477230    0.63551184683686    9.10369317955240
H         7.52368296320848    1.88973845970026   10.29804262433938
H         8.86838344618140    1.09072183409552    1.47133456969300
H         7.50387571708826    2.12105630748216    0.96454104938737
H         7.19396330273683    0.52532936988200    1.69129421478951

