68
CSD_code = TUJZUT | q = 0 | S = 0 | Stoichiometry = C18H42Cl3N2P2Ta | MND = 5
Ta        6.70391677907687    2.78716970468227   15.39949605906479
Cl        7.55476079818154    1.99766338620845   13.41902806941949
Cl        6.14983036640709    4.78230710613140   14.42065975508070
Cl        4.89409084991417    1.45693628823372   14.90901378788932
P         5.11939216642468    3.53339254841700   18.35507514922196
P         9.97518206956030    3.23202116736889   16.29102297588841
N         5.92182134780484    3.20720708167650   17.05881108325306
N         8.43984319689901    3.05147048522842   16.09163346358597
C         6.14752951903807    4.63021050128373   19.46950021528992
C         6.75629688211060    5.71141679508508   18.58354144423877
C         5.42273428607886    5.20699691908724   20.67718466700164
C         3.54502857159155    4.48676138498126   18.00369322449454
C         2.43136365128658    4.27867138207551   19.02432988391387
C         3.08378116332647    4.17140154796902   16.58591559366854
C         4.72151887722591    1.97579397151900   19.30795375158697
C         6.03949923602651    1.30319255469240   19.67230349479442
C         3.90869050049363    1.06315292598569   18.39748674835738
C        10.95750898201990    1.64356173626473   16.09895830409987
C        12.36111145722233    1.83269411741289   15.53533625584188
C        10.14457545016093    0.65131416563878   15.27783818017588
C        10.63994696875839    4.55060641784955   15.14749649441062
C        10.28788715514288    4.16662942039744   13.71670792083157
C         9.96723885026274    5.86992627636686   15.50963029696470
C        10.32222426977035    3.82139358703892   18.03271377020937
C         9.59693500275402    2.87871589740968   18.98498437604982
C        11.79300516231293    3.98677034383123   18.38676405517741
H         6.96004666371854    3.98243977396167   19.81352337647454
H         7.18606893217905    5.24321280815520   17.69682439398327
H         7.53192729814043    6.25596967165944   19.11947969845690
H         6.00062944976239    6.42482068425312   18.26163098962309
H         6.12735930082790    5.75706984663766   21.29998146872104
H         4.98112657861035    4.41892367317338   21.28363492521988
H         4.64029622542690    5.89663750446338   20.37076870765967
H         3.85829289925337    5.53813902194431   18.03247822875395
H         2.78394389358918    4.42973485646857   20.04111637446946
H         2.01336063401145    3.27855960635374   18.94987831410556
H         1.62829419300269    4.98987030425187   18.83421840700966
H         2.84152124287541    3.11711118324390   16.47766682706316
H         3.87684822993078    4.40767024980448   15.87870640164552
H         2.20265670458175    4.76038601677836   16.33513511951842
H         4.15551689097107    2.21983363635812   20.21158982934244
H         6.58681962302515    1.86825222595055   20.42338031329445
H         6.65271363302009    1.21800083253153   18.77363245908573
H         5.85760230044725    0.30438695916708   20.06604484503706
H         4.42315360630871    0.95269248157958   17.44298370956442
H         2.91648081941580    1.46333296766450   18.20640769313647
H         3.79437794201484    0.07872794599597   18.84963924034518
H        11.04134732907830    1.25249313134976   17.12106584570722
H        12.92103359121067    2.57459047375074   16.09913007370589
H        12.32666947902023    2.14283145480546   14.49464837991185
H        12.90288492174499    0.88868529080229   15.58480431611150
H         9.14673034520780    0.54004238300356   15.70696877612916
H        10.63322632292059   -0.32203486800755   15.26309994742465
H        10.02712153844086    0.99782625271331   14.25393459909390
H        11.72507815159244    4.63019292791478   15.26270264428207
H        10.72883774018234    3.21429044719443   13.43250471643781
H        10.63795189603768    4.92813108349034   13.02115546389885
H         9.20682281876502    4.07886566903848   13.62162743898481
H        10.16942116997709    6.61519697190357   14.74228153999244
H        10.32377217727424    6.25869485729837   16.46084854351556
H         8.88827874664778    5.71829720079734   15.56656387633500
H         9.82045990725845    4.79386062843925   18.08364340273567
H         8.59039177081687    2.71008518927012   18.60213959586295
H         9.53930461349999    3.30907920894033   19.98362567246056
H        10.10782128026466    1.92076411287859   19.06065906081447
H        12.29373154060121    4.65202202193273   17.68689190661026
H        12.30421356848576    3.02689533506824   18.38442188813375
H        11.88765047001108    4.41314026419705   19.38488196882415

