49
CSD_code = TUKBOS | q = 0 | S = 0 | Stoichiometry = C26H16NO4PW | MND = 6
W         2.75222922766243    5.84030008131221    5.02437874072599
P         2.34417641932970    3.46996603306385    4.72731391460064
O         1.52492086323046    5.59559537340099    7.90266276687680
O         2.77539062354817    8.91988872138375    5.49745414573305
O         3.99902010894568    6.36551707090524    2.19033285521835
O         5.64053340775756    5.91738054456486    6.20591539518965
N         0.70092632883851    5.72082339462195    4.09247231805399
C         2.78445100318535    1.84549005081508    5.17204063767027
C         1.89031281913923    0.79280895398906    5.09477464731838
H         2.24416249754187   -0.18381931516504    5.40101767561285
C         0.54618876535612    0.90288837709732    4.73634422445390
C        -0.02571147068173    2.11397250256535    4.36175329705692
H        -1.07867816475972    2.09541088217750    4.11460021594226
C         0.66078504533379    3.31996154053868    4.29684020999341
C         0.04049403710584    4.56772010777526    3.85021891567690
C        -1.17862003428052    4.57232242327358    3.16265002340555
H        -1.67632777217456    3.64196020502263    2.94274878583795
C        -1.73684464978471    5.76107373601241    2.74265366332781
H        -2.67683587501706    5.77009960735321    2.21221062019365
C        -1.05473734417556    6.93920199098714    3.01140748637285
H        -1.44447779300711    7.89645010788929    2.70577645263975
C         0.15295218973120    6.86185692470085    3.67830223621735
H         0.70835464155459    7.76632431583281    3.88995965766348
C         4.17340891008064    1.63634336966910    5.60129721492562
C         4.78606498140143    2.57253693774165    6.43186861039430
H         4.21504367874656    3.42522531373122    6.77952340306415
C         6.09738473155620    2.40439188286821    6.83344692744241
H         6.55893817058798    3.14050981630355    7.47378950892258
C         6.81553756066533    1.29787760169113    6.41076883434932
H         7.84182914737360    1.16724732499703    6.71957132653619
C         6.21433149460097    0.35919130572757    5.58814377860774
H         6.77265643119531   -0.50302949521489    5.25374175266208
C         4.90260019399315    0.52444794668217    5.18493751375570
H         4.44742524759082   -0.19833842474353    4.52307574748100
C        -0.29860603624159   -0.30321805811965    4.77205975548723
C        -1.57534831309291   -0.26000960744121    5.32759204066241
H        -1.94010624832020    0.66254202714600    5.75630012792711
C        -2.36467175738869   -1.39421767755625    5.36560770035022
H        -3.34926743248413   -1.34775602109961    5.80751188747276
C        -1.89489219260831   -2.58765664560414    4.84339886092241
H        -2.51292458329623   -3.47255665549682    4.87179883709485
C        -0.62828977415479   -2.64113190989561    4.28602009520283
H        -0.25798699087827   -3.56834045917936    3.87381042794652
C         0.16545121277337   -1.50988771140940    4.25347295262145
H         1.14591095412166   -1.55411106073518    3.80155598503077
C         1.96425044159222    5.66281108282756    6.84833453338682
C         2.75648003343165    7.78850538615781    5.30951975228300
C         3.53095588141933    6.13346703292540    3.20710885976611
C         4.57735938295282    5.86936306790956    5.77731467992316

