65
CSD_code = TUKGUB | q = 0 | S = 0 | Stoichiometry = C28H31Cl2NNiP2 | MND = 5
Ni        1.10792989123181    2.25965898973348    4.64782043723405
Cl        1.13888423308526    3.75430628269932    6.26755796464554
Cl       -0.03307929377381    0.35581219625900    4.41858021149172
P         2.64937352707785    2.22267529358984    2.95905272017263
P         1.95107729497262    1.13076400847987    6.20922703669132
N        -0.02307810557978    3.38879586449424    3.30705742938014
C         1.37739759629755    2.28737828555363    1.64186349768762
C         1.57326193807433    1.76115300004928    0.37189995657152
C         0.54342780216969    1.75688817376238   -0.55108363517963
C        -0.69305579637914    2.26751530438289   -0.20010737625165
C        -0.90073476661904    2.79458788706600    1.06323273156283
C         0.12772835759804    2.81347718438029    1.99460469848579
C        -1.39667243317640    3.34389610271141    3.82346025894555
C         0.41049980956925    4.79073185627793    3.24064842836677
C         0.88850439735056    0.78112598710236    7.64455880166264
C         2.61105899540475   -0.54427199881482    5.83499242604057
C         3.47334439320140    1.89553580543813    6.86313977278456
C         3.56115587849771    2.43264244363453    8.13993101314598
C         4.73888975250190    3.02410491341776    8.56178780951147
C         5.83055376090552    3.09428970091882    7.71275473618047
C         5.74374565035244    2.57063350267929    6.43313649204196
C         4.57028255879791    1.97466191934842    6.01206479072801
C         3.64806313494357    0.81082313772733    2.39947478967323
C         2.99311901541809   -0.41300735573132    2.25776838552911
C         3.70705403833103   -1.54741979661862    1.92421688697134
C         5.08081048651466   -1.47607178408804    1.74757095555511
C         5.73848590526606   -0.26886359599107    1.91538560856437
C         5.02900000275487    0.87227146522892    2.24733565103618
C         3.71522880101973    3.64976586361886    2.55437145649540
C         4.08496927472664    4.48474147326787    3.60408926290039
C         4.89921272376973    5.57806048738076    3.36869994146978
C         5.34029845096950    5.84583059692916    2.08352158108129
C         4.96290830023154    5.02306054525599    1.03307055694678
C         4.15242983770086    3.92691016132335    1.26357356066043
H         2.52797734461826    1.32479386201232    0.11439544523070
H         0.70215270803282    1.34136923157070   -1.53487447049543
H        -1.50652312205168    2.25470268719734   -0.91013498788578
H        -1.87569710510005    3.18238145014273    1.31315278179168
H        -2.05234246094728    4.04813388925958    3.29843517556937
H        -1.79338048058806    2.33308351846911    3.72948288339242
H        -1.37827351718962    3.62057941707457    4.87989908324915
H        -0.25939391187635    5.36648782940680    2.58951846455182
H         0.39918949590237    5.22292279895385    4.24125444606199
H         1.42415343004777    4.85488067043717    2.84329241473992
H         1.47202650821710    0.24047860545766    8.38972645571689
H         0.49401048246186    1.70574931106005    8.06092677402603
H         0.06201708290143    0.16107845682681    7.29824967789674
H         3.21186422082578   -0.87391907689761    6.68250414695868
H         1.78197113244752   -1.22737203378430    5.67017840652828
H         3.22889432744649   -0.52340033824772    4.93936674727611
H         2.70717166381284    2.40690713468232    8.79881928988568
H         4.80099306324934    3.44114721840889    9.55637669950960
H         6.74469182632846    3.56465989006536    8.04412308768593
H         6.58752984366491    2.63320779522611    5.76103814258674
H         4.49417012187965    1.57641110104715    5.00653374289791
H         1.92407675654506   -0.46242409101464    2.41987494467827
H         3.19404464223389   -2.49070082463079    1.80818595759611
H         5.63946317375799   -2.36308673847088    1.48751315311595
H         6.81027310840572   -0.21463453008910    1.78951507805168
H         5.54654303424111    1.81226884985445    2.38258225041988
H         3.72041627246256    4.27541081925748    4.60199820598711
H         5.18532880739321    6.22136244158492    4.18752377891116
H         5.97532608671377    6.69928191554330    1.89611231614551
H         5.30259117061957    5.23757621072209    0.02999697447249
H         3.85785888031367    3.28709862736237    0.44407409464380

