63
CSD_code = TUKHAI | q = 0 | S = 0 | Stoichiometry = C24H30MoN4O4 | MND = 6
Mo       -1.54039925705303   -0.42408367564267    2.78436264301452
O        -1.09267259549397   -1.03343057466922    4.72960174856665
O         0.15581887909364    0.70634530507961    2.85917265739865
O        -2.20664649206334    1.14489993779066    3.98722618363387
O        -3.27674274445325   -1.38478401631819    3.25579750647858
N        -0.66642770645142   -1.80645912192932    2.11191880706108
N        -0.06678688648423   -2.79504845762823    1.52998543117238
N        -2.27061420033425    0.31336365494590    1.35176039170749
N        -2.75414344018826    0.77127567009335    0.24227449261269
C         1.02354820717558   -3.43729207308161    2.09842913405870
C         1.53363103518136   -2.96559828904162    3.31456367422526
C         2.62087648997855   -3.57129150438050    3.90427151737446
C         3.23384850301943   -4.65900979162437    3.29915006712534
C         2.74259734715490   -5.12570323950682    2.09161924426936
C         1.65208851500454   -4.52801137164016    1.48853508208292
C        -0.58155702610158   -3.22904382429309    0.23913246686413
C        -3.86593611010386    1.60048022503400    0.20568402353663
C        -4.50994463578893    1.92917633942522    1.40531565160319
C        -5.62107600571513    2.74280945840114    1.40792401588130
C        -6.12521629895724    3.24834683846846    0.21819801091348
C        -5.50072624721465    2.92073028402233   -0.97342776803425
C        -4.38472825432961    2.10548245653105   -0.99111723925492
C        -2.08125981069443    0.39391186974147   -0.99252733610500
C        -0.22306672885370   -0.54860410580209    5.50244494422262
C         0.73794562155830    0.40091760602972    5.14058932818542
C         0.87182799571697    0.96789358692483    3.86913332771907
C         1.99810827866731    1.96226360669817    3.65964453026752
C        -0.19855952049871   -1.05994407956600    6.93027633009690
C        -3.18733702939333    1.13931564692944    4.77940547101851
C        -4.13406571936289    0.11564226949858    4.88353685539188
C        -4.12806856916958   -1.06643429213761    4.13577230713811
C        -5.26070419741836   -2.04864218025137    4.36728469480420
C        -3.37041615900753    2.35495916304606    5.66804536851380
H         1.05590005749778   -2.11164597335486    3.77294409601395
H         2.99933320720997   -3.19208417570191    4.84281114292602
H         4.08580365674083   -5.13371567958548    3.76171393796831
H         3.21553194817590   -5.96934167971330    1.60928534796177
H         1.29896632635373   -4.91537947949156    0.54671883728339
H        -4.11418098656883    1.52453602166897    2.32548626971944
H        -6.10293932175869    2.98567410212059    2.34427834404221
H        -6.99567678672295    3.88666079981721    0.22067177005271
H        -5.88803162337738    3.30494809061472   -1.90636199587283
H        -3.92744728117483    1.86722031894791   -1.93769204239613
H         1.43121263781522    0.72231288599346    5.90435405403004
H        -4.93272571969040    0.24807582080481    5.59895918353219
H        -0.87273803750721   -4.28040294799735    0.27406795712100
H        -1.46333501045875   -2.62094411940179    0.03624112664636
H         0.15939392732836   -3.08232663854282   -0.54983803361159
H        -1.20331104774418   -0.18413410650256   -0.70315552901538
H        -2.73172132112686   -0.21315870903044   -1.62616062437107
H        -1.76110953935752    1.28036687209443   -1.54293306230867
H         1.95336977335937    2.34374289438261    2.64227336738052
H         1.91150185595645    2.78838075516719    4.36167363734467
H         2.95887335233364    1.47695118820546    3.82041896435634
H        -1.05439107988350   -1.70975295486094    7.09922890504510
H        -0.22433359487818   -0.23068239373357    7.63365391669628
H         0.71527475072267   -1.62585833030049    7.10296368339915
H        -5.10130717434798   -2.92995967328115    3.75045997773927
H        -6.21155778668577   -1.59048286185304    4.10188671929669
H        -5.30305343876969   -2.34049273459991    5.41410413891271
H        -2.51945550006929    3.02249184759118    5.55209911913036
H        -3.46105124041149    2.05583307344773    6.70988159705991
H        -4.27809024048673    2.88523446617048    5.38518163041193

