61
CSD_code = TUKKER | q = 0 | S = 0 | Stoichiometry = C26H24N2O8Zn | MND = 6
Zn       -1.29421832823082    3.95721755207556    2.77708878382079
O        -0.60757637890204    2.37451651186763    1.45422070141235
H        -0.97089903043015    2.14468694041588    0.59268145922971
O         9.58094443073875    2.52263952567519    4.44929979811741
O         9.18169712871456    3.40703365164956    6.48546824900022
O        -1.89028340677690    5.90518223850573    3.81984731577537
H        -2.84294833003352    5.93504437120221    3.95373214511207
H        -1.48492694485126    6.11611418936517    4.66645904911787
N         0.52357613361033    3.77510645444614    3.39196069183006
C         0.80630410805894    2.46217835380641    1.35059080690289
H         1.08551997047684    3.08580749031968    0.48987401040141
H         1.23214262453885    1.46144511706144    1.20599168923548
C         1.37871237346786    3.06874101488905    2.60761425483928
C         2.70393751638249    2.90563652193221    2.90851169910009
H         3.32019347055852    2.31559927444567    2.24923970664086
C         3.26286976053116    3.46591513572155    4.07648446674306
C         2.34881926537096    4.15764710827347    4.90444803474795
H         2.68805417753277    4.61200553656805    5.82057370103776
C         1.04226410768047    4.28456898133644    4.54179390239731
H         0.34201059647375    4.81208765721486    5.17296330528514
C         4.66400109494883    3.33889644081385    4.40036578032883
C         5.10288630886100    3.35816946925745    5.73324566223917
H         4.38076141137175    3.42065685377714    6.53490963616622
C         6.44240275989191    3.24523669114822    6.03406401745751
H         6.79165676017399    3.25989453326130    7.05560026185797
C         7.37662066986853    3.10983443046673    5.01619948782158
C         6.96141618220565    3.09401602379947    3.69176167763462
H         7.70773063531475    2.98974880482491    2.91850849356360
C         5.62302109798384    3.20307612639223    3.38479219093843
H         5.31404289348669    3.22375174956655    2.34906754000270
C         8.90973467629327    2.99520854626610    5.36128705534538
O        -2.09808917586236    2.96843232413961    4.58154567697933
H        -1.57678831685106    2.37292825924179    5.13015517050103
O       -12.23142254714362    2.60911516141963    1.56645117641233
O       -11.90106580616854    3.41164101983613   -0.51506584364991
O        -0.67235588627852    5.49099140486427    1.25234402205190
H         0.25204207047712    5.75004837731094    1.32345403596642
H        -1.19014022822399    6.29712332510036    1.34758044167896
N        -3.12202059669352    3.71338551445778    2.22798837665743
C        -3.30721802099862    2.31282021069784    4.21606229772013
H        -3.99706966326548    2.30879572174443    5.06915880823031
H        -3.10282421969663    1.27306410616958    3.92823004406080
C        -3.94850334614452    3.01206772747035    3.04394815808507
C        -5.29179104835664    2.88392901042085    2.81123074622702
H        -5.88808529935434    2.29890073300899    3.49297950978769
C        -5.89275991683227    3.46633186299953    1.67615830989975
C        -5.00973151428611    4.16213410871601    0.81916886231625
H        -5.38641314850410    4.64141540282338   -0.06915874315524
C        -3.68485440908193    4.26495502400986    1.12149275023086
H        -3.00566656915871    4.80017852097221    0.47521643115052
C        -7.30837873232568    3.35740781528087    1.41071436625979
C        -7.79858535948520    3.39037172382009    0.09636856504269
H        -7.10777823533606    3.45529514114075   -0.73217928884289
C        -9.14961450182505    3.28710857404317   -0.15252872693467
H        -9.53873851860894    3.30946605723837   -1.15943141790283
C       -10.04431945207276    3.15264307491818    0.90019012038181
C        -9.57753158560346    3.12196459461743    2.20713284673914
H       -10.29467793716964    3.01763333139951    3.00754208443662
C        -8.22739308489031    3.21966361755370    2.46210684735745
H        -7.87794912028271    3.23095227951115    3.48502489845649
C       -11.59054356530025    3.04227267873057    0.61357389974143

