25
CSD_code = TUKNAQ | q = 0 | S = 0 | Stoichiometry = C13H9AuClN | MND = 2
Au        4.23297621884678    3.36578974704558    7.70918383315235
Cl        5.62551606217715    1.66076005668507    7.83330076898740
N         2.21318614372870    5.61633779391194    7.74988228872245
C         3.02294033061108    4.78464759707760    7.66857732824061
C         1.28677619015468    6.60027922218586    7.85068021803813
C         0.98099492102765    7.35566449915928    6.71979101849823
H         1.46682708460418    7.12443628542030    5.78403543445773
C         0.06889038934684    8.38726750112912    6.81572410836271
H        -0.17338477618019    8.97161093794995    5.94184036772029
C        -0.52800563437810    8.67116023172805    8.03543243041460
H        -1.23727145635041    9.48095559096415    8.11192263573783
C        -0.22102807562262    7.91970039886152    9.15546591121903
H        -0.69780418124499    8.13568534695429   10.09980801191405
C         0.68249726950132    6.86415837428199    9.09047184992874
C         0.99820383697914    6.06497579557000   10.28509780677260
C         1.33532636969901    6.70321232968290   11.47604143029193
H         1.37711681078462    7.78243292270266   11.50769113998593
C         1.64277512322133    5.96312844396482   12.60237160789346
H         1.91188706975227    6.46807866696409   13.51807611316966
C         1.60808667791496    4.57930442134812   12.55658372130515
H         1.85047311655495    4.00238338826326   13.43599524022093
C         1.25884903972596    3.93737762456478   11.38031363173952
H         1.22272794613954    2.85928980115571   11.34092012727942
C         0.95665705829035    4.67331052463457   10.24972460478885
H         0.66368646473315    4.16545249779753    9.34216837117913

