82
CSD_code = TUKRAU | q = 0 | S = 0 | Stoichiometry = C30H48AuClN2 | MND = 2
Au       15.23545060678653    9.99843736688038   13.61808427873424
Cl       14.14018382306006    8.03090556731563   13.51908816083818
C        16.20180883487025   11.75309026763924   13.70126358487889
N        16.97758347911300   12.27371206332443   14.66544595236709
C        17.43125038787799   13.50937974980944   14.29152129644089
H        18.06782016089761   14.10598093140686   14.91057705928587
C        16.91851459608505   13.76523876264142   13.06420878267542
H        17.02053372446059   14.61323479243017   12.41923191430278
N        16.16751900448175   12.67323323592909   12.72233967391755
C        17.28902757733174   11.60991023060233   15.91127738479972
H        16.67653841048944   10.70554914295255   15.92649608744343
C        18.77066612587644   11.21281357111920   15.94254695121022
H        19.01091583285717   10.85525755639711   16.94343503942338
H        19.37991336480283   12.10254472932565   15.76058365938702
C        19.14797330050338   10.14259148868788   14.91366499406882
H        18.92243227433723   10.51421158933955   13.91005792449185
H        20.22925248984745    9.99455568513577   14.97232242347571
C        18.45467702016430    8.78924088798157   15.09491324766441
H        17.38606480673693    8.89323633200685   14.89792953315209
H        18.84789079052064    8.10690735393450   14.33774251017085
C        18.67005202813821    8.17090986340945   16.47310105928451
H        18.24435677953029    8.81480605296058   17.24332893551268
H        19.74495738539919    8.09702554883738   16.66330430268768
C        18.05679070117781    6.77552669995233   16.61045446599682
H        18.52187504162352    6.10776431732528   15.88125671109463
H        18.30463142969486    6.39743840898124   17.60656210776604
C        16.53748822059323    6.71444659215032   16.42828769515890
H        16.27118013831144    6.90269035071269   15.38754982023536
H        16.21168536406772    5.69821668149869   16.66327405524638
C        15.77567472259143    7.69829756323734   17.31380355038328
H        16.14550028485498    7.63855689107253   18.34220244082299
H        15.95467235729522    8.70646726048466   16.94326264631887
C        14.27373140579786    7.42706669230253   17.29324213711265
H        14.08864124722921    6.44845153139149   17.74387512981583
H        13.94025131048546    7.37965080649520   16.25512186126727
C        13.44233414631956    8.47786298298452   18.03602541285793
H        12.43642308100163    8.07249795275262   18.16311594646507
H        13.85640867240266    8.63879686377845   19.03498930704209
C        13.34131849917831    9.81649659162479   17.29060151773929
H        13.50728221788952    9.63090668457081   16.22697540585174
H        12.33065506278845   10.21868901593058   17.39133219785993
C        14.33126623987090   10.87788298453623   17.77529122892633
H        15.31787216759902   10.42860230422316   17.87504263468316
H        14.03543950138218   11.23552590533934   18.76485168101177
C        14.39238439112796   12.05057514773886   16.79841160647405
H        14.51216143824055   11.65465200402286   15.78668656298470
H        13.43628390903607   12.57945139592552   16.81939995632823
C        15.50383574232078   13.06336689433496   17.08249445910825
H        15.31660226553574   13.54226821025653   18.04640462467665
H        15.45504539495986   13.84523691532517   16.31884083685845
C        16.92320531287687   12.48410878082979   17.11822628753703
H        17.63269448777155   13.31181469443988   17.19926411313299
H        17.04205807617822   11.87241794976826   18.01306503182679
C        15.43594524195406   12.51341584449060   11.51411052192827
C        14.08761088855379   12.87406738492517   11.48907279281033
C        13.38930996679507   12.69550542951645   10.30250496898541
H        12.34477380698379   12.95991106583895   10.25326559718038
C        14.01181442178475   12.17078587847820    9.18660754279322
H        13.45144788737645   12.03156679677067    8.27435340700126
C        15.34506303041476   11.81166250510563    9.23564994577382
H        15.81379504330587   11.38852771096244    8.36135314692694
C        16.08322715865657   11.97756943596066   10.39933860574658
C        13.38951761227007   13.42201926560351   12.71123814249775
H        14.10997839111613   13.50844687314839   13.53097513276166
C        17.52825401421942   11.54210947539468   10.46216912968183
H        17.96403532817564   11.87636981601403   11.40963983702795
C        12.82557804800467   14.81817196598172   12.43731163601841
H        13.61427515782824   15.49200937245852   12.10791386219452
H        12.38109648871210   15.22332107122394   13.34342467508408
H        12.05974400640152   14.78537950897027   11.66729322197404
C        12.28608064044829   12.46273852012366   13.16259647088999
H        12.69639799338249   11.46927652893009   13.33642872886360
H        11.50705216849593   12.38350150095471   12.40936445264960
H        11.83769331894756   12.81759181842612   14.08766393164538
C        18.35347375054113   12.16002695438528    9.33175816122635
H        19.40448139348546   11.91287554304912    9.46348427135320
H        18.25073829294070   13.24351345907011    9.33066932887304
H        18.03697433279957   11.78398602415548    8.36295413638904
C        17.60222413935556   10.01341416610205   10.42430919578290
H        18.63416499852954    9.68395661658159   10.52323319427799
H        17.20512731155036    9.63313289895132    9.48679686961813
H        17.02044953257510    9.58564672438058   11.23984290322340

