90
CSD_code = TUKREY | q = 0 | S = 0 | Stoichiometry = C32H54AuClN2 | MND = 2
Au        5.73137339705169    4.48538876645385    4.16219857892255
Cl        6.89396000747286    4.60270081591328    2.24138892075547
C         4.67508300923627    4.38691024867674    5.85512616725021
N         4.34630117034279    3.32379383995114    6.60615271482793
C         3.59735696047182    3.71753408353274    7.68206084497368
H         3.22505714109478    3.03099412128335    8.41291143871196
C         3.45935800888151    5.06210145767274    7.59724339923619
H         2.95347363423365    5.76118470643935    8.23049219545597
N         4.12889682773756    5.45100336645887    6.46863261294403
C         4.71390369717907    1.96011001052713    6.29774505770972
H         5.32456625510883    2.01429000568838    5.39062101196854
C         5.54317052733805    1.35131161719697    7.43423135121891
H         4.92123785552438    1.26478334903353    8.32880128812068
H         5.83293157391854    0.34274932234061    7.13569760363597
C         6.79975616400651    2.15563463364176    7.77335500280117
H         6.52209200435735    3.17449794007048    8.05555337775766
H         7.27027672658350    1.69527290163303    8.64581237546508
C         7.81604440851912    2.20572499833222    6.63429777050062
H         7.41001980311075    2.78120814030455    5.80063736158910
H         8.01116885767836    1.19090373421946    6.28003475968759
C         9.13112837963763    2.83951344390694    7.08227051064366
H         8.93744450721443    3.84985784864369    7.45076216259769
H         9.53611686976203    2.25641816155806    7.91425249833335
C        10.17124813696719    2.90143774131641    5.96240806328839
H        11.15148227433092    3.10289790553979    6.40306143599389
H        10.22756452615688    1.92693322796675    5.47171156519449
C         9.87648693752405    3.97815170198406    4.92102864506620
H         9.85364128678325    4.95488005926455    5.41060669330755
H         8.89815031748222    3.81200138893516    4.46826060102373
C        10.92014624107672    4.00413609396341    3.80770988403582
H        11.91287934042879    4.16457901633225    4.23879541932104
H        10.92990908046821    3.03478187124127    3.30427080966827
C        10.61433378038336    5.09661230327997    2.79134267546097
H        11.33187302799218    5.07549654566905    1.97407729652596
H         9.61711962604430    4.95838746682850    2.38118453721552
H        10.65610858544230    6.07740730437244    3.26156168360324
C         4.22674896255906    6.78430673891199    5.98463202349112
C         3.24007007098308    7.26012257843188    5.11909941922001
C         3.35763754107975    8.56136354603762    4.65033203138560
H         2.61610703166705    8.95382463817203    3.97255646808919
C         4.42001490614224    9.35784051110853    5.03165766420374
H         4.49793916251716   10.36651976061239    4.65472570411078
C         5.38969061305601    8.86505929651313    5.88301494968255
H         6.22115092925382    9.49309689050631    6.16152067329193
C         5.31334968340961    7.56873617732270    6.37410581038257
C         2.09542304207244    6.38478375775199    4.66679556182561
H         2.13377724898117    5.43330833521994    5.20720657748941
C         6.39741914496418    7.02894017830881    7.27599814845300
H         6.13281547181234    6.01393785430396    7.59032684684106
C         3.46224286307107    1.12878576527818    5.99381498872797
H         3.78567637438169    0.12740849402342    5.70605006179206
H         2.85435590430788    1.03860212781563    6.89586838453316
C         2.63369780019593    1.73605230517191    4.86069057207251
H         3.30626250510000    2.02691910146235    4.04986612461217
H         2.13344173279825    2.64178366212959    5.21279169848603
C         1.58774468777585    0.76983617139842    4.30628837346254
H         1.11134258977616    1.23458224191798    3.44025432569256
H         2.08666495761854   -0.13714975661816    3.95801787052550
C         0.50809514270105    0.39358456584430    5.31878641312508
H         0.03874001292015    1.30263820930900    5.70355378213993
H         0.95923442446824   -0.13216658888071    6.16254017008046
C        -0.55957204720422   -0.50223601561547    4.69540470745119
H        -1.03558137958511    0.02507912226299    3.86533637097424
H        -0.08255556629605   -1.39604327203526    4.28618301316554
C        -1.62506463030892   -0.91977213363213    5.70572799682869
H        -1.14782049549338   -1.44145461701619    6.53924922551829
H        -2.11080073353320   -0.02800010706835    6.10973800810792
C        -2.68036915102768   -1.83022177774329    5.08261800770090
H        -2.19257074669915   -2.71851083445122    4.67505501086326
H        -3.16162083509936   -1.30799885931599    4.25265862521895
C        -3.73656258273578   -2.25302553800991    6.09595521535885
H        -4.47580910773352   -2.90099182429255    5.63097892881036
H        -3.27839704419183   -2.79295058938535    6.92187088516255
H        -4.24885927565993   -1.38226557999428    6.49939731915795
C         0.74386066396928    7.03581665654192    4.96817554574997
H        -0.06244466823300    6.35291645666615    4.71021592830949
H         0.66420737355989    7.28120119461385    6.02553877466790
H         0.61180814362401    7.94837138228678    4.39373461222079
C         2.23820235702197    6.07931886912287    3.17384096763543
H         3.20316009137246    5.61585996737278    2.97404805715318
H         1.45312070383540    5.39822640537994    2.85320735212647
H         2.16847641167190    6.98996345876264    2.58495763704064
C         6.54326570672888    7.88473852493757    8.53632533213503
H         7.27713440719792    7.43990022016627    9.20459558901681
H         6.87345433933912    8.89006936499803    8.28980529552559
H         5.59377747605772    7.95519453724230    9.06370091684546
C         7.71866291519364    6.94905565638211    6.50847427024542
H         8.48952326235317    6.50891977569977    7.13736895726732
H         7.60070680012740    6.33353966753776    5.61805736766368
H         8.04896386057821    7.93739318635714    6.20008712354407

