30
CSD_code = TUKTOI | q = 0 | S = 0 | Stoichiometry = C10H15Cl2NPtSe | MND = 4
Pt        1.98343101739978   -1.01212522487492    4.04114049146243
Cl        2.13991910493670    0.99513547765387    3.01220410579091
Cl        1.01372407975813   -1.91160905856391    2.18884008133534
Se        3.02768431706194   -0.05137276237170    5.97021237799970
N         1.88611798238300   -2.90791356595659    5.08924591534632
C         1.43533024519125    0.43415325023162    6.95392193098773
C         0.23009239026344    0.57522159148231    6.28059701830320
C        -0.90676791655684    0.93012403260916    6.98576700662613
C        -0.83815301116853    1.14449335375792    8.35278893594630
C         0.37071673664227    1.01467596722182    9.01817264082013
C         1.51387474866066    0.66839235861732    8.31987112658035
C         3.31615745665147   -1.81610387128013    6.84034432219664
C         2.15935518480996   -2.75192599507610    6.52583090247644
C         2.90563094260011   -3.73789311320845    4.44526156019456
C         0.57848027866802   -3.54694926908660    4.92707605603889
H         0.19022513382580    0.41270748751872    5.20526613221110
H        -1.84575693464659    1.03945772031197    6.46484707163579
H        -1.72616343390198    1.42045076392649    8.90112962397281
H         0.42605874025319    1.19203784854361   10.08190719721488
H         2.46277377857911    0.58237016186995    8.83125223403713
H         4.26871436571603   -2.18521112182952    6.45618492670599
H         3.40482695065417   -1.67367143695917    7.91826744004313
H         1.25711021212024   -2.34554503462492    6.99591718416753
H         2.35765683984175   -3.73900197884170    6.97213901740604
H         3.88555876046962   -3.26692835035294    4.51900496609326
H         2.65357708255659   -3.84409971503488    3.39046942019821
H         2.95040626530561   -4.73195062374694    4.90680245881798
H        -0.19651018729173   -2.92272401782219    5.37138038018842
H         0.56515632178565   -4.53277266965137    5.40563132624940
H         0.36597254743307   -3.65282220446442    3.86402614895104

