76
CSD_code = TUKVUS | q = 0 | S = 0 | Stoichiometry = C36H36IrNOSi | MND = 8
C         2.44051020013449   10.78042470710124    4.78920649052512
H         2.59969538997494   10.63258026024687    5.85259100652849
C         1.62257550005835    9.93953627376022    4.14024100611874
H         1.17576955406330    9.11807799211129    4.68564905811138
C         1.12191678075790   10.14891819884719    2.74038257816420
H         1.01389216342689   11.21942736585040    2.56367106417729
H         0.12604399494478    9.70741944530259    2.65656341174506
C         2.01194850648069    9.52165056732848    1.64929016903101
H         1.71874574796421    8.47824257874573    1.51874791987110
H         1.81698122551061   10.03099949428226    0.69847499831396
C         3.50872523290510    9.55304870457566    1.89506444492191
H         4.04542929538317    8.91888996046561    1.18767032204820
C         4.21254635148178   10.63489389826524    2.41568811556346
H         5.25295917075483   10.72481314810591    2.12148952029959
C         3.57562131164001   11.95289702549944    2.80092421356491
H         4.32894480830924   12.73564307785776    2.69067291011940
H         2.78266933849450   12.17127473859524    2.08139499325994
C         3.02990828095621   12.04585512611558    4.23850449078652
H         3.85002222613448   12.34164257507631    4.89359564902490
H         2.27391622636685   12.83925743678114    4.28637737753147
C         3.86517728763616    7.10267783779398    6.36589135004718
C         4.00007297677478    6.78970749291379    7.73124124780632
H         3.58179765687727    5.86196436118013    8.09042032378625
C         4.65873177283722    7.62760738006083    8.58273746266229
H         4.77692356388352    7.38565505906701    9.62882151196836
C         5.91540462073213    9.73550166969043    8.87544436061598
H         6.04845138972145    9.52201080813539    9.92480090394903
C         6.42930812431238   10.87972544891249    8.31151132083430
H         6.97651510901717   11.58097353725362    8.92593330915757
C         6.26206019357033   11.15525552287009    6.96473310502414
H         6.67792868879435   12.05343571814195    6.53189835923349
C         5.56724304504364   10.28000889044984    6.12190134405264
C         5.01302683543358    9.08881965018611    6.70084006534462
C         5.20664986863409    8.82354213476692    8.08155080103058
C         3.18162506780681    6.10125488350247    5.48861344645263
H         3.80385758480627    5.86521150729829    4.62875748806580
H         2.23865784170841    6.49471725290517    5.11576222697992
H         2.98071519377902    5.19139149480044    6.04847337512205
C         6.20219141730680    6.26832821071585    2.58450900383307
C         5.11714522160058    5.79879431227813    1.85502642698126
H         4.22882332244196    6.40852862770582    1.79094569586461
C         5.15546329049931    4.56896763181045    1.22073109368325
H         4.29882479178019    4.22338045982244    0.65916871219521
C         6.29035939913575    3.78050760643550    1.30324679654160
H         6.32390561558727    2.81978075034266    0.80962463098648
C         7.38299706724764    4.23270499778862    2.02387714817858
H         8.27412320233398    3.62478499140440    2.09282219094877
C         7.33512887438834    5.46286316343837    2.65465188652160
H         8.19320673656274    5.80868649156234    3.21254755285378
C         7.39146517724460    9.05631495302053    2.33264406209684
C         7.96415580800645    8.53290115370346    1.17739745063390
H         7.74064305097897    7.51592617731030    0.89117192031065
C         8.81500450228437    9.29150921410306    0.39272478383776
H         9.25030064515180    8.86332222642315   -0.49929045922891
C         9.11039304722254   10.59647941567514    0.74803720100446
H         9.77728772727270   11.18933545920631    0.13819656788906
C         8.54109250698330   11.13836347934909    1.88826184012368
H         8.76212599982962   12.15912884407533    2.16858364989227
C         7.68935580842863   10.37580821956994    2.66685722587101
H         7.23130516615613   10.81197347415099    3.54132082119946
C         7.20088462546277    7.64237897352282    5.06966450050529
C         6.93726680164649    6.48451178876951    5.79830887003908
H         6.28223925026060    5.73525231930353    5.37727640150487
C         7.49972922276201    6.27541083796569    7.04336276854646
H         7.27598516122993    5.37085098456554    7.59177854814636
C         8.34279386718839    7.22756302185284    7.59157755048330
H         8.77325333856664    7.07414740773174    8.57076570373762
C         8.63505657365509    8.37345022044762    6.87353620756530
H         9.29873021820209    9.11753682183405    7.29037128351247
C         8.06936377783346    8.57412946694069    5.62675125788141
H         8.30774802949720    9.47105314783219    5.07653586782254
N         4.34180052921539    8.23979293153034    5.87143868869360
O         5.42037112788123   10.51123100129284    4.87179929435097
Si        6.24583911929215    7.98921973282162    3.43930128235489
Ir        4.16919704720440    9.05034019735966    3.95105554920484
H         3.34467480463203    7.85918806157391    3.49548828150310

