75
CSD_code = TUKYIH | q = 1 | S = 0 | Stoichiometry = C38H33P2RuS(1+) | MND = 9
Ru        2.17150289402632    2.53496620945619    3.50469221038035
C         3.59021918218291    2.61663934637277    5.05545832967459
C         4.27043596731371    1.73432964262366    5.76441318128114
C         5.33227832574227    2.03694256711878    6.71706254057322
C         6.04720017070278    0.97650125252620    7.27468061100469
C         7.09584188871229    1.21730088745950    8.14012345462406
C         7.44553117916186    2.51737809704428    8.46687818198833
C         6.73621960831972    3.57629409652137    7.92357951272149
C         5.68833614097602    3.34105126508750    7.05521233912331
C         4.14018320491764    0.43024167501072    1.17944080723139
C         5.18042322545737    0.36652256578691    0.25395722400432
C         5.25143592244821   -0.70024464821240   -0.62095084852237
C         4.29326762738611   -1.70307361827589   -0.57561583239648
C         3.26289179498821   -1.64287465061056    0.34801769893081
C         3.18496403350681   -0.57661244229362    1.22781706051603
C         5.71860185576969    1.83620223209699    3.07718786333777
C         6.32301751222644    0.61326433275994    3.36163003786497
C         7.51991745189405    0.58045096275029    4.05253216276752
C         8.11180059785549    1.75941677323713    4.47527798264990
C         7.50604590478695    2.97617520857696    4.20577793881464
C         6.31033918736706    3.01987792037512    3.51437072345570
C         2.49831714189846    5.74276482660516    1.73981734681800
C         3.17699764140359    6.42990574606651    0.73576589553819
C         3.21971176617915    7.81074616163823    0.76873318384511
C         2.58746481667641    8.50276888650717    1.79158404151756
C         1.90588015508153    7.81783208421661    2.78464544986517
C         1.85805342147770    6.43548598441202    2.76110232915231
C         1.32319144839212    3.58600826181713    0.26535790461892
C         0.38774493607163    4.51848158615003   -0.17211809887125
C        -0.45709542908026    4.19936230336553   -1.22101229630495
C        -0.37892430060577    2.95555375139417   -1.82604113264753
C         0.54391211248104    2.02027373802177   -1.38068313174666
C         1.38918459343598    2.32936919762446   -0.33277003720176
C         0.41464507340020    1.35863322919077    2.90990043791944
C         0.99024365903185    0.69965443768881    4.03939554429046
C         0.91278618652309    1.57859103200724    5.14284257324720
C         0.27110226222770    2.77611212458475    4.71576991878966
C        -0.05503743894455    2.63503797976129    3.35263627671928
C         4.07621341207555    3.32108914916806    1.14379836774836
P         4.07925771448412    1.85412685297289    2.29955865619554
P         2.40661749610218    3.94008778118526    1.67214870524557
S         3.40666592732212    4.24102799002915    4.77455627680886
H         4.07905945992053    0.67884524316891    5.60128822568530
H         5.77844303194230   -0.03914931014514    7.02133364542872
H         7.64126655592945    0.38751800296051    8.56409850289061
H         8.26353103937696    2.70421100022831    9.14551392245190
H         7.00024469815046    4.59136517007401    8.17981578204573
H         5.14081663419053    4.17372953426211    6.63782455906809
H         5.92928744372986    1.14713674413503    0.23541897459915
H         6.05587450286028   -0.75344080359792   -1.33838622706592
H         4.35381415939638   -2.53457693006983   -1.26049046088872
H         2.52166660192665   -2.42669107952432    0.38439413003991
H         2.38606920274954   -0.51588561540921    1.95330298668942
H         5.85304712915464   -0.30583407770371    3.03905377520729
H         7.98784332750105   -0.36784334004890    4.26826443441444
H         9.04006730946788    1.73043690111662    5.02396563749343
H         7.96118188736126    3.89376137560922    4.54500587723754
H         5.82667531541293    3.97204182305780    3.34073287808701
H         3.65862473050482    5.88114026899699   -0.06253010717523
H         3.74635365773845    8.34991784745809   -0.00385393352304
H         2.62736515660924    9.58084564154810    1.81308663529913
H         1.41454562694598    8.36013900889265    3.57770845621567
H         1.33573860459293    5.88752481307114    3.53474734025422
H         0.33003700272982    5.48897595867404    0.30095917514852
H        -1.17835635006445    4.92425871791846   -1.56600030188185
H        -1.03920624562183    2.71202825557607   -2.64382838124452
H         0.60269177939014    1.04985951530623   -1.85019117099542
H         2.10539869992666    1.60009985729532    0.02817451780732
H         0.15541301498103    0.89574017979571    1.96547546791448
H         1.29894230664761   -0.33535692113339    4.08732042723148
H         1.17522217094157    1.33900209271509    6.16459982664359
H        -0.01902911450232    3.59407884054920    5.36072529627386
H        -0.65095861797846    3.32067569512261    2.76417766974171
H         4.85246531781614    4.04392364521859    1.41569066850217
H         4.15567768888795    3.06165916506435    0.08467037884003

