72
CSD_code = TUKYAB | q = 1 | S = 0 | Stoichiometry = C31H35ClN2PRuS(1+) | MND = 9
Ru        0.90575767529955    9.73399855306015   12.33267030758204
Cl       -0.20619027542039    7.83472130349113   13.17944887116323
P         1.46264570715317   10.19034340853383   14.52767127603533
S         3.11870051702737    8.69106057305261   12.11507905551207
N         2.34470377166502    6.29205442125989   13.08446528551627
H         1.35880294533751    6.57976765399774   13.17176439045544
N         4.49113616757479    6.51482440712908   12.73635231685786
H         5.35045339149266    6.94612403243737   12.44729775005488
C         3.29678437247619    7.10839839241458   12.67790085374944
C         2.87898830026448    5.00852390110615   13.49761943798743
H         2.42879885843666    4.20829330918458   12.90560473416414
H         2.65665206287777    4.83198658248390   14.55231918885165
C         4.39268585121137    5.15594393868433   13.23563702030939
H         4.98384940109405    5.04249284860336   14.14786801256887
H         4.75607003545812    4.44427751325349   12.48968724247214
C         1.47844430061851   11.40690477813605   10.82882027837046
C         0.49721960137100   11.90003661703343   11.70868742524988
H         0.67213345845583   12.83446946340744   12.23365789142903
C        -0.78235009490484   11.29131475122720   11.79378325684607
H        -1.55810350012509   11.78926508041951   12.36372290717856
C        -1.08640844623820   10.14274966374310   11.04211387604287
C        -0.05927431933167    9.58349053562932   10.23626232004076
H        -0.28189290868918    8.71599875108630    9.62415832208774
C         1.18433976973572   10.21365813010366   10.12035121420008
H         1.91844935055969    9.82703190984814    9.41976304697016
C         2.73748631061853   12.16286853080130   10.53881163121426
H         2.64557326309349   12.64605368544077    9.56470810331750
H         3.59419776275957   11.49201855260297   10.49857573400942
H         2.91854518008155   12.92944639776116   11.28806547995408
C        -2.48389994619173    9.58427816739632   10.93061658393623
H        -2.40898187348908    8.54487214603807   10.59133933359379
C        -3.20494764213069   10.39744937267001    9.84582661758272
H        -4.19904860828524    9.98986335291669    9.68488890044834
H        -2.66078994977114   10.36101624455011    8.90425134289434
H        -3.30289948986870   11.43791131678613   10.14909911574582
C        -3.28424282134082    9.59479089778323   12.23108157660276
H        -4.25231091543661    9.13250943553990   12.05708988188805
H        -3.45783437263343   10.60667338946343   12.59142435075876
H        -2.77419981817237    9.01830153250001   13.00017122455772
C         0.13198278123025   10.35135695168071   15.74716680323617
C         0.43951822875518   10.41300196746832   17.10590194772983
H         1.47024275444442   10.34809139710959   17.42719500873464
C        -0.57703137732395   10.55532310368628   18.03084997377477
H        -0.34078947155555   10.60419204328452   19.08296273771498
C        -1.89741756782618   10.63237663000644   17.61204979024209
H        -2.68678446123571   10.73836106001353   18.34017041072679
C        -2.20478578239350   10.56840031161127   16.26345316826982
H        -3.23297164986723   10.62057491064674   15.93825387445566
C        -1.19010437765941   10.43115261227509   15.33280605378884
H        -1.41268369522516   10.36636264960220   14.27657060770290
C         2.36881712422973   11.76040011167988   14.62142809831562
C         3.48335831935647   11.90968322503029   13.79665076409906
H         3.76415556014339   11.09977298076299   13.13427841053284
C         4.21352863400990   13.08340641300503   13.82134315463263
H         5.08345686445581   13.19087877413441   13.19046587958497
C         3.82531948565823   14.12319551723684   14.65242832361801
H         4.39330313418338   15.04059410798616   14.66977079904168
C         2.70324487203443   13.98764528461066   15.45308378752728
H         2.39388094909903   14.80084936727896   16.09190748332879
C         1.97267602733170   12.81160202676621   15.44103677917514
H         1.09829236698167   12.71243546533727   16.06741040559058
C         2.54295894777845    8.97027622814464   15.34916694024439
C         1.93408384845645    7.81003658606068   15.82751791537906
H         0.86568932766159    7.68545936986473   15.71774627281373
C         2.69293916661796    6.83262319911714   16.44351739032495
H         2.21154149731269    5.94853436804114   16.83471006131072
C         4.06380960938418    6.99468134066654   16.57266687087602
H         4.65574014289028    6.23238489097575   17.05679731566297
C         4.67109443524045    8.14390573724590   16.09490681780247
H         5.73676074748710    8.27795527165446   16.20496756941682
C         3.91687026265684    9.13390573337907   15.48835167724362
H         4.39666022512915   10.03539682264581   15.13801074945496

