60
CSD_code = TUKZII | q = 0 | S = 0 | Stoichiometry = C31H23NOsS4 | MND = 5
Os        8.68894334234317   -0.24372461120390   12.99762558878666
S         7.36618253405864   -2.12570519036582   13.23039176654135
S        10.11262293729418   -1.24183683212097   14.51475715329033
S         9.46149642539758    1.73363521343110   13.88749840530329
S         6.71827469400399    0.87695431874584   12.58164227146127
N         9.43924312455113   -0.36762785940726   11.47283571929609
C         8.43209081513386   -3.32667942295771   13.94648757383987
C         8.05104003042514   -4.66351591878811   13.97591364890321
H         7.10699776147531   -4.94744799988781   13.53724045842351
C         8.87992351681619   -5.60072812123030   14.56029594826834
H         8.58375435833522   -6.63850073011304   14.57642397276794
C        10.08710244110211   -5.21189660124590   15.12575536411979
H        10.73225712747988   -5.94651636274762   15.58304803163909
C        10.46840336631242   -3.88480378381448   15.10826138772552
H        11.40000511490656   -3.56356109896061   15.54796639522549
C         9.64346398595255   -2.93654036087453   14.51365737517727
C         7.12081807011562    2.57373297179771   12.75698923172603
C         6.21626546007881    3.54683107678507   12.34455845728651
H         5.28368736132793    3.23652985189947   11.89933061680474
C         6.52282615699421    4.88215903947717   12.50809681147569
H         5.82153774949392    5.63510306168921   12.18194756421432
C         7.72478892525116    5.25833652931156   13.09432430373319
H         7.95817100636454    6.30393756118680   13.22610114222227
C         8.62394576389722    4.29954490556385   13.51341450630256
H         9.56017539212113    4.57262398387776   13.97483662157656
C         8.32848622721302    2.95137478496869   13.33999457187148
C        10.01665745916416   -0.06686098943266   10.24081418769467
C         9.26603802961501   -0.73915249617602    9.09028725112649
C         9.46629912381712   -0.30990895818958    7.78541562259581
H        10.11680504414283    0.52771701721124    7.58500705999848
C         8.81977509053922   -0.94734563819923    6.74197522892270
H         8.97730304123034   -0.60633318447259    5.72952707890857
C         7.97464112014038   -2.01544918151479    6.99254104348128
H         7.47215240161088   -2.51079345855806    6.17530419282872
C         7.77440743684806   -2.44276728685691    8.29349779115463
H         7.11383867052210   -3.27162197190818    8.49805285454172
C         8.41960802044682   -1.80905065631071    9.34102396499727
H         8.25788509187744   -2.13638359242689   10.36008825196353
C        11.44472491552952   -0.61150786070213   10.17543789328477
C        11.77509724015094   -1.73339868416276   10.92281547773202
H        11.03094959247648   -2.18073743327967   11.56962749426414
C        13.04844539453546   -2.26775406665111   10.84895881068904
H        13.29802501827806   -3.13612882108060   11.43961965671244
C        13.99633385167367   -1.69077601031288   10.02162424282118
H        14.99081612556962   -2.10676137292787    9.96276944063769
C        13.66571610101810   -0.57573970209043    9.27046968546668
H        14.40153075785307   -0.12020937654047    8.62465633137743
C        12.39403279546079   -0.03494543918761    9.34422381574671
H        12.14853130340516    0.84218863579129    8.76479826315159
C         9.91963376847881    1.46110272463365   10.21963203606863
C        10.89319963087627    2.22598783353404   10.85275631856216
H        11.75472830753580    1.74472112779671   11.29125220347876
C        10.75498578004120    3.60092492452574   10.92159487583445
H        11.51905509150360    4.18911667217811   11.40703323931032
C         9.63504968171774    4.21695467682334   10.39021808073585
H         9.52436767407189    5.28881845116813   10.45385567399642
C         8.64672793440161    3.45250972563035    9.79375854883082
H         7.76129769262810    3.92585892401315    9.39731368348369
C         8.78007731682587    2.07793868634979    9.71600975977966
H         7.99895980768889    1.48290837644528    9.26674505188571

