139
CSD_code = TUKZUV | q = 0 | S = 0 | Stoichiometry = C56H74N3O3Si2Y | MND = 6
Y         8.12559179309877   12.17201880278808    5.16797553871586
Si        4.78209674609564   12.12086307542679    5.41673684560107
Si        5.78358537428550   12.74058861802339    2.66840769982708
O         9.70470253358200   13.03707066303881    3.78222562329961
O         8.18814852092392   10.43507333799956    6.50670857385404
O         7.94389371513533   14.63809310676730    5.74282127424317
N         8.97875423743105   12.26653413236730    7.46129556657803
N         9.65182821367059   10.84124820401831    3.97136094610055
C         9.49718610308234   13.03253502814976    8.52047399710756
N         6.09795794331418   12.42076152567739    4.33804365540220
C        11.08271922130657   11.82946332620496    2.22662363682496
C         9.33889535627419   10.07277683595496    8.55689878991804
C         8.91417850318048   13.03321573380478    9.80334114497941
C        13.06691499988911   12.58597168497283    1.00808573776001
C         8.80729449241453   10.96576774263147    7.49222610217888
C         8.56432521274674    8.98062845754595    9.03907928260800
C        11.41898259793176    9.14160876423615    3.99270406204341
C        10.09420329025258    9.52718690447501    3.72877131112391
C        12.19284916464032   12.71134556176123    2.12163584807387
C         9.16964956661499    8.57326591189827    3.27268771095028
C        10.13784544133935   11.90179155981401    3.37561400597417
C        11.81009439818733    7.84079046547065    3.70911414267762
H        12.83068682386900    7.54210800220566    3.89524063633021
C        10.85554764417959   10.90322601815738    1.23569164003867
H        10.00366290558500   10.24527088659261    1.30111433169702
C         9.60194064669779    7.28238985013426    3.00913869247638
H         8.89887422897095    6.54792992356273    2.64588626463637
C        10.57281321216102   13.90134230950540    8.25415018573847
C         7.67823382052454   12.23430215856579   10.15440506879522
H         7.38621306620582   11.62576270448854    9.29570339354773
C        12.47969934139400   13.69061282560304    3.09338781953665
H        11.79601183700382   13.79814609120769    3.91919885553015
C        10.55050369158576   14.65101808944671   10.54486572969706
H        10.96971451415429   15.25796960052319   11.33356949915668
C        11.20451117210060   13.98111874407765    6.88193114436024
H        10.52840661606635   13.49486510429934    6.16011982830431
C        11.08949884364317   14.68501779052474    9.27431254684973
H        11.93191855115974   15.32983274105321    9.07620379016891
C         6.51400966011050   13.17628017781931   10.48020714882439
H         6.73537383521646   13.77621864801003   11.35974323945874
H         5.61338033472527   12.59872496698408   10.67642784357687
H         6.31663859312586   13.85067195887932    9.65057024509477
C         7.51079181256241   15.36144695794711    6.88992822253374
H         8.31824645486022   16.01708708699019    7.24799627024743
H         7.25990958763698   14.65141008309946    7.67577949312795
C        10.92074091488096    6.91798999574277    3.19699968316625
H        11.24765842236111    5.91443307174739    2.96776548855133
C         7.37333915036192   12.62153936456634    1.61270497332788
H         8.16153209046797   13.26477164732114    1.99386939296454
H         7.16935555664073   12.93255135216870    0.59228353802830
H         7.76055965376632   11.60911904713415    1.56991246730452
C        11.41465092980383   15.43392025722396    6.44157304172257
H        10.53217147736250   16.03164498179280    6.65550596644800
H        11.60758424259617   15.47829017563831    5.37246169617328
H        12.26348345344361   15.88134695954772    6.95440979828543
C        10.61009427397198   10.27851472985604    9.03772140544923
H        11.19167110172303   11.11237971998325    8.67631402958282
C         7.23686910837264    8.73900676918180    8.62704329572373
H         6.79248677099392    9.38887690674892    7.88904480311864
C        11.70848921709366   10.79952593565545    0.13033251206983
H        11.49686415467003   10.06153644669106   -0.62902302528799
C        14.19080399276564   13.43449128664854    0.91913778067387
H        14.85041268632738   13.32822885362833    0.06950837190838
C         9.13834183754316    8.11929942482339   10.01299850985704
C        12.40663733830272   10.06558605610957    4.66728257017403
H        11.95970816233386   11.06009388549857    4.76009156877920
C         7.70786614194724    8.91454301579425    3.08782994764167
H         7.55228644380192    9.98214014889615    3.31468129708769
C        13.57693488965290   14.49759633515344    2.97883239460539
H        13.78544843876435   15.24393448610456    3.73234444084186
C        14.44470931233648   14.36702852047038    1.88436675819150
H        15.30969156553022   15.00994586833859    1.81020557343503
C         7.92893327093937   11.29918880929032   11.34142008646191
H         8.84636407928188   10.73383589556616   11.20510916086041
H         7.10427762111050   10.59687590559035   11.44449964356119
H         8.01179607256914   11.86391680559202   12.26701502761732
C         9.46003900650443   13.84230697834917   10.79022482989359
H         9.02289967038853   13.83628298000639   11.77699635353032
C        11.17185055173911    9.41718616724365    9.98864356966487
H        12.17671011647662    9.60252034747436   10.33793341285410
C         7.90625802282082   15.57392444770113    4.65800224134214
H         7.66581563517612   15.01278259388451    3.75409810144816
H         8.89795892601668   16.02969908357774    4.54542688268113
C         8.37427337281756    7.04658419318999   10.51873424298482
H         8.82273355688609    6.39786551282856   11.25791466115805
C        12.79791251312424   11.61672149211497    0.02029092459558
H        13.46800372673979   11.53444391029984   -0.82363953366344
C        10.45350744092913    8.35683337880188   10.46413456155930
H        10.87909653091092    7.68710904280876   11.19788207434259
C         6.52264570954521    7.69178104822255    9.13918902624833
H         5.50743720740608    7.51902332696557    8.81287160461674
C        13.71157630882288   10.19627750356798    3.87902082063036
H        14.28281553906119    9.27207158176447    3.91828490241790
H        14.32449775669848   10.99161598546277    4.29880515600215
H        13.51121743390682   10.43077029831636    2.83675954802132
C         6.87108415465670    8.11046323577743    4.08611369972850
H         7.01746677736887    7.04117616140981    3.94772569399781
H         5.81584928711534    8.33496602479778    3.95344828106115
H         7.16580651268488    8.37365579600790    5.10019892899376
C         5.09631108474685   14.50997000864934    2.34300302980803
H         4.54257218279695   14.88304899677876    3.19643518137520
H         4.41889160761864   14.50321403419092    1.49507345236782
H         5.88539560959052   15.22151947476113    2.11699026753839
C        12.68494598050714    9.53704963581096    6.07890179089323
H        11.76296255041096    9.50422747089852    6.65687793820970
H        13.40294016399419   10.17542626472803    6.59026560339394
H        13.09457333357317    8.53040026661053    6.03793944190731
C        12.54217444542674   13.23557441726011    6.87996386642872
H        13.21253209719291   13.65849179649804    7.62695946617175
H        13.02185165127356   13.30575812173357    5.90592130506549
H        12.38971567483197   12.18488200566390    7.11072221146719
C         7.24869092212956    8.64744447978200    1.65215252611343
H         7.86950680963579    9.18395893837823    0.93685014544869
H         6.22066105356226    8.97489679270107    1.51931854732447
H         7.30207333512534    7.58678690070729    1.41717804324724
C         4.50203843522177   11.54147821468568    1.90078760504907
H         4.70354269963430   10.51143433796343    2.17309391773097
H         4.49813936018820   11.60399268223447    0.81726675356994
H         3.50217042535220   11.77748389534507    2.24753995117438
C         6.84287242997988   16.63180999987610    5.00722758807214
H         7.29129024915914   17.62362225061712    5.06184953217460
H         6.04518958560863   16.65497153924361    4.26954996270241
C         3.22976054551553   13.20583221379816    5.13605615742317
H         3.43854346841275   14.26456020982706    5.25121317214574
H         2.44877924473575   12.94967305863729    5.84462352039892
H         2.83160159399784   13.05871071342654    4.13979337371650
C         4.17190675463834   10.30302166937867    5.44089532854602
H         3.82866352365683    9.98453073537964    4.46277625439867
H         3.34404555593116   10.17874551980513    6.13297600838015
H         4.96728285698484    9.63294873178255    5.75247167585209
C         5.35598796362899   12.49485715679060    7.20945335147946
H         6.44593382402329   12.51553462268708    7.26121879614329
H         5.00720133420340   11.72942580875092    7.89512060816698
H         4.97911593987904   13.44646209273327    7.57081103733694
C         7.09413164678678    6.83533056933308   10.09176606646181
H         6.51446860633233    6.01318258063800   10.48563965249777
C         6.33390281956788   16.18580251654785    6.38113518283677
H         5.46350051556931   15.53939685882715    6.26952141650292
H         6.08642937013502   17.01807650482509    7.03585470245872

