26
CSD_code = TUKZAA | q = -1 | S = 0 | Stoichiometry = C12H8NOsS4(1-) | MND = 5
Os      -17.79671177462811   -2.55969922822176  -11.33368317531103
S       -20.12387850407374   -2.65318023680299  -11.06829035601697
S       -18.11843629781911   -0.34610011053562  -12.03576086229616
S       -15.87049836366550   -2.56545569196338  -12.66845563308595
S       -17.86931605021281   -4.87527326545501  -11.69005031076488
N       -17.21436749709574   -2.40701112158823   -9.77692220710546
C       -20.63734399158141   -0.97516024118874  -11.12884662691044
C       -21.94475606588398   -0.64912302985015  -10.78540935827817
H       -22.60692243833995   -1.43966023260854  -10.46516046689205
C       -22.37782920786730    0.66074933835940  -10.85288959714329
H       -23.39472589849170    0.90449496577546  -10.57822083937936
C       -21.50942176915145    1.65934396814508  -11.27048314745081
H       -21.84559325942815    2.68557732779882  -11.32310559434405
C       -20.21064621204185    1.34485440861053  -11.62004489729763
H       -19.52158298441471    2.10775125497483  -11.95068280639364
C       -19.76331669303732    0.03014701566921  -11.55018679480031
C       -16.28336879133234   -5.26416566780205  -12.33540470823574
C       -15.90400882447121   -6.59658405764222  -12.45501295110981
H       -16.58994731679336   -7.36075943256664  -12.12081404134502
C       -14.67345905069410   -6.92653834693124  -12.98857671921116
H       -14.38549451427397   -7.96549750618204  -13.07118116760734
C       -13.81039769673501   -5.92724944262968  -13.41544891865411
H       -12.84648520031517   -6.18309842473050  -13.83314149758285
C       -14.17999198649686   -4.60089506193866  -13.30601126702596
H       -13.52283075531883   -3.80969462466176  -13.63510102800683
C       -15.41346885583800   -4.25797255602444  -12.76341502775086

