30
CSD_code = TUKZEE | q = 0 | S = 0 | Stoichiometry = C13H11NOsS4 | MND = 5
Os        0.14290574007248    9.21962294381732    8.51346168334661
S         0.64849486182463    9.86870712393587   10.66388645895242
S        -1.32120014022666   10.99384775896398    8.43797661281001
S        -1.40758820620486    8.04050569208869    7.21485107267501
S         0.96963252234091    6.93201166871083    9.14900680890447
N         1.37589267969071    9.75570006506006    7.52304644358188
C        -0.27595872196563    6.43399510111428   10.39361798977187
C         0.00849472407458   11.50151887449598   10.79163428428400
C         0.33883492876191   12.28628876265874   11.88911240801003
C        -0.18280162122845   13.56051688573984   12.00153188458900
C        -1.03520796794619   14.05505195131865   11.02440658091166
C        -1.36842264046814   13.27756679481605    9.93209235193223
C        -0.84544631696128   11.99577118051710    9.80918515684869
C         0.35188415304390    5.96857219945862    7.76470847788037
C         0.89969243788247    4.71688363123868    7.53885240013198
C         0.42358103188419    3.93967087129808    6.49893487038529
C        -0.59809964650227    4.42248122485992    5.69259922897350
C        -1.13791104220793    5.67247718967039    5.91505212351743
C        -0.66211489290393    6.47420794149091    6.95344819357746
H        -1.28084103888741    6.60500886420522   10.01368861506220
H        -0.09326963035261    7.02774261215032   11.28546776911050
H        -0.13157402566237    5.37860598496156   10.60787359137486
H         1.00297679939037   11.88600648620874   12.63989978913415
H         0.07855878583258   14.17018434590154   12.85282294216882
H        -1.43951062402121   15.05166692384800   11.11303769088674
H        -2.02961481573741   13.64640205081492    9.16369949341342
H         1.69566866570745    4.36587721759385    8.17735038796432
H         0.84982773339377    2.96598336502598    6.31656139006682
H        -0.97175459023336    3.82051787940054    4.87844963441016
H        -1.92702914241462    6.05770640864928    5.28854366533780

