117
CSD_code = TULBUX | q = 1 | S = 0 | Stoichiometry = C56H52FN2OP4W(1+) | MND = 6
W         1.66102819006543    3.58249202461253   -3.60055901269495
P        -0.75110238486127    4.00671117651598   -3.28079969349599
P         0.74209395994315    2.23391269622497   -5.44709537525623
P         3.99417463825499    2.83313021159602   -3.66164083361293
P         2.43644225881821    4.67882204840926   -1.57034963046020
F         1.63772210288162    2.03607402555988   -2.35512127414004
O         0.06522518518577    6.57049388863910   -6.07869745903636
N         1.90620650559961    5.03252906227725   -4.62065540831028
N         2.16415027749236    6.15318987422850   -5.25459362736706
C         1.23012283541117    6.90708254711803   -5.93085328528206
C         1.93397228563629    8.10167343367609   -6.40053965594403
C         3.21180411851591    8.04721874429344   -6.02562103448096
C         3.47523600803570    6.78762271803247   -5.27496404783328
C        -1.43394351817068    3.98779058225616   -5.00379036802492
C        -1.07020814817459    2.67034823129962   -5.68293118844539
C         4.91277937468609    3.51059435378451   -2.17119142692796
C         3.96885802387194    3.79323835668618   -1.00443438714615
C        -1.35983846806966    5.56621463004594   -2.56933465906603
C        -1.53614301728876    6.71439702373469   -3.33716443962195
C        -1.90462970459474    7.90169835439439   -2.72691254257976
C        -2.08618672771255    7.95998015342605   -1.35514467147500
C        -1.90398835461166    6.82153607661096   -0.58579564281399
C        -1.54179883985328    5.63205816849843   -1.18772072735055
C        -1.85085496242370    2.75666562116790   -2.53773655152366
C        -1.41367952592329    1.44021860728619   -2.43853933127733
C        -2.26454513095415    0.45664737997567   -1.96509706309180
C        -3.55665403142626    0.78141875206789   -1.58847458550212
C        -4.00076444480611    2.09043150088341   -1.69590489430901
C        -3.15701420599523    3.07533513995805   -2.17413998015665
C         0.62712844665723    0.41625867140394   -5.46471521090497
C         1.17940252889165   -0.33687324603555   -4.43643636277008
C         1.06924025917127   -1.71706697112095   -4.44969640153309
C         0.41120190375861   -2.35026482106771   -5.48933440162140
C        -0.13899172317455   -1.60260333090987   -6.52026989653533
C        -0.03442667925963   -0.22544128981303   -6.51073794390317
C         1.43281944666093    2.58147668702709   -7.09414008608434
C         2.29812277234319    1.68486620443740   -7.71454196558648
C         2.87705338645073    2.00687907921669   -8.92870113245850
C         2.60709491873144    3.22709269934050   -9.52695342402828
C         1.75702538271621    4.12912264256307   -8.90665621360874
C         1.17366894316972    3.81174464318583   -7.69349652843685
C         5.12350244767380    3.29346887442622   -5.01014232960567
C         6.49978100923538    3.11153032587866   -4.90802262086920
C         7.31804775650860    3.42785532534874   -5.97679243915906
C         6.77213169751500    3.91720782074782   -7.15400820683305
C         5.40238081327607    4.08974559657646   -7.26422174354840
C         4.58051905705538    3.77799983248650   -6.19393971165281
C         4.30108872394497    1.04183226480868   -3.57176960867012
C         4.28806081406838    0.34935287216366   -2.36569893397984
C         4.43086903153651   -1.02724839547448   -2.35644508431620
C         4.57964557168487   -1.72131526908953   -3.54542888827378
C         4.57945949078783   -1.03731147061232   -4.75106296984160
C         4.43488901461234    0.33644717108110   -4.76631576799850
C         2.89042464551042    6.42300447271622   -1.78331755995078
C         4.12566316263730    6.98534446264442   -1.48134443928244
C         4.34467490117538    8.33448765365491   -1.71142908172716
C         3.33825311231637    9.12874909011512   -2.23610625382566
C         2.10215322172566    8.57423302570543   -2.53421950939532
C         1.88232843297772    7.22842880479208   -2.31337611091098
C         1.48727111556939    4.69230924633995   -0.01541860036867
C         1.46376986349658    5.78563037752606    0.84370168344222
C         0.71257685251272    5.73287833917954    2.00456682730975
C        -0.01451148125501    4.59565407274679    2.31593615020273
C         0.00437640834307    3.50442616780809    1.46121225723838
C         0.74704062189635    3.55356630515784    0.29603874171225
H         1.43768946554813    8.87314262334214   -6.95768741685567
H         3.98523734547302    8.76773725817924   -6.21560588217699
H         3.83591646873516    6.96800995990459   -4.25780554634937
H         4.20474833162924    6.14884713923993   -5.78579334405540
H        -2.52096065410989    4.11953864011222   -4.96978586307705
H        -0.99073931615982    4.83351794500987   -5.53783160941486
H        -1.30160965359655    2.71423269681606   -6.75123037789912
H        -1.65024187487528    1.85166105701937   -5.23931374836968
H         5.70622191227911    2.82160512553562   -1.86594546891069
H         5.37498505870490    4.44549820130288   -2.50993166577028
H         4.46691194646658    4.35349379536547   -0.20615624155430
H         3.59973780044280    2.85670582073499   -0.56979712935569
H        -1.37357464632591    6.69126644623392   -4.40380694664309
H        -2.04933076792399    8.78615681252763   -3.32914625066603
H        -2.37082604343467    8.88924015876265   -0.88567748403560
H        -2.04547701764739    6.85843848979605    0.48387333821313
H        -1.41001365582620    4.74070409625267   -0.58992866924250
H        -0.40563299801998    1.17873074264469   -2.73027483445857
H        -1.91669357084352   -0.56307287811452   -1.89233359970312
H        -4.21985691798012    0.01625242326130   -1.21486446099051
H        -5.01072940408134    2.34331821806399   -1.41042376664037
H        -3.50947404003226    4.09323934103490   -2.26356157323495
H         1.69843662385596    0.15048667863670   -3.62464051810980
H         1.49988708126613   -2.29523233525516   -3.64603671004374
H         0.32557406780973   -3.42616259794083   -5.50030663162293
H        -0.65001556508993   -2.09670045588212   -7.33279786364787
H        -0.45546508265025    0.35697802972626   -7.31829437593179
H         2.50616938784698    0.73123888950035   -7.24916703377522
H         3.53957446529196    1.30341407639495   -9.41031262355949
H         3.05763591604664    3.47393262342306  -10.47643483352972
H         1.54559790184829    5.08208958904922   -9.36865021790575
H         0.51813385831422    4.52161047319224   -7.20907200033996
H         6.92729148593639    2.71258811078214   -3.99964755445151
H         8.38502077464427    3.28571839369874   -5.89618939577604
H         7.41546726367740    4.15696934313034   -7.98654555814845
H         4.97103058374386    4.46110953930566   -8.18195404149609
H         3.50594910566829    3.89442791562262   -6.26525509680504
H         4.15535960914189    0.87908117629707   -1.43378207428770
H         4.42375125985993   -1.55945765011278   -1.41681220838389
H         4.69351712766572   -2.79455561504695   -3.53391566928335
H         4.69077707863546   -1.57735554664685   -5.67932653987700
H         4.43137482785133    0.87584726278201   -5.70441344062220
H         4.91899486412248    6.38446214167013   -1.06171477417369
H         5.30511080744708    8.76719267111643   -1.47454066748478
H         3.51608171531039   10.17886468448457   -2.40906641672202
H         1.31290908491877    9.18854491110807   -2.93993851077258
H         0.92509692019915    6.78137203656229   -2.55043980699172
H         2.02772800587866    6.67556876497816    0.60363388420496
H         0.69596726801927    6.58357682430959    2.66913351408942
H        -0.59839765619648    4.56013895137010    3.22306805518747
H        -0.56649168906049    2.61900331636700    1.69910548527183
H         0.74674496916904    2.70889036595965   -0.37977126884338

