80
CSD_code = TULBIL | q = 0 | S = 0 | Stoichiometry = C32H39Cl2N2OP3W | MND = 6
W        14.02318607282934    5.51693926413049    0.90128807024199
Cl       12.31545532580009    7.15527042710439    0.18938452731318
Cl       15.69946888643112    6.75303564167196   -0.17334058195696
P        13.86712790423463    4.63654509124210   -1.35678259014743
P        15.73412926261647    3.96457290158833    1.63346163769993
P        14.25252602021867    7.15788467134523    2.68946946474199
O        12.89692155870941    4.10207658239367    4.47730256794886
N        12.76930242510103    4.54419268110966    1.71804434176930
N        11.89472440973905    3.87804729763431    2.42238235556628
C        11.98429333358586    3.67557717573219    3.77950477338925
C        10.70797781956420    3.26870804364671    1.82772742840624
C        10.04620538707411    2.63002682134720    3.00347483882213
C         8.88521742832097    1.89073586532753    3.08076899284220
C         8.49515570481222    1.40692466440522    4.32292384539575
C         9.25132647611143    1.65776100931158    5.46009946853637
C        10.41896259497788    2.39826619598556    5.38721249733157
C        10.80814371719078    2.88114071719225    4.14758354000936
C        13.46779677773538    5.88710703727277   -2.63875333457306
C        15.26883671984858    3.81827231236667   -2.21862070052622
C        12.49052684303296    3.46754592334766   -1.54107741635535
C        11.20040333539455    3.98457040563303   -1.44323791598610
C        10.10516240893730    3.14622043220374   -1.53706356701753
C        10.28772057449775    1.78124492733671   -1.70048713633243
C        11.56889369755937    1.25989184684610   -1.76733602723736
C        12.66845280868049    2.09793642821607   -1.69122796248523
C        15.91482661764908    3.66259356352538    3.43760662242577
C        17.47277897127399    4.30086145967133    1.18075850561249
C        15.47364213575041    2.24322372921908    1.07064482233078
C        14.28787494456111    1.63363674175396    1.47569629115309
C        13.95767273070000    0.36511694234295    1.04253726028013
C        14.81078311096578   -0.31697848096791    0.18791165066292
C        15.99548189308810    0.27462363755988   -0.21491285600690
C        16.32779969132222    1.54709943146057    0.22154070484120
C        12.78968856928549    7.26987532765151    3.76889096057524
C        14.38297459212390    8.89593344878168    2.12029267840052
C        15.66294179734113    7.08765774771876    3.84086582752290
C        15.54271704137097    6.69981754541852    5.17000478435600
C        16.66832333532226    6.61286901159923    5.97163731183689
C        17.92032087257998    6.90165525930111    5.45505472732784
C        18.04958859082296    7.26924064050881    4.12450983274335
C        16.92820850557492    7.35680231365241    3.32155892474655
H        11.00232942518717    2.54757987274677    1.05699464410612
H        10.09202818985800    4.04100313005697    1.35506719394101
H         8.29390932066970    1.69308875569947    2.19928044963655
H         7.58829976042413    0.82649024618736    4.40512533561280
H         8.92231683551198    1.26930201620257    6.41237903130298
H        11.01799519227080    2.60102722791915    6.26119015293659
H        14.33763905597148    6.53662822071165   -2.75150543998090
H        12.62647790934354    6.49766961202972   -2.31360739158267
H        13.23997980161762    5.40041400187418   -3.58793379653702
H        14.96899274798835    3.51402475489544   -3.22140594933745
H        15.61818948713935    2.95526578573752   -1.65601331545977
H        16.07715101124152    4.54770781059874   -2.28664572678483
H        11.06596453582749    5.04555872979763   -1.27831792095354
H         9.10619605600344    3.55346056827169   -1.47558551787355
H         9.43242476756115    1.12492846986804   -1.76959306152233
H        11.71455953494405    0.19546101022742   -1.88244919640196
H        13.66275746868879    1.68067372500071   -1.74522109373572
H        16.40569716338498    2.70607541015048    3.61972520953235
H        14.92969980138581    3.67651604375889    3.90540529858486
H        16.50805715923704    4.46818263487962    3.86799943951207
H        17.56744710075510    4.40469245217841    0.10099476894352
H        18.12561063761435    3.51099694633342    1.55254999287457
H        17.74970162874169    5.24978056381325    1.64011278770158
H        13.63662453286923    2.16730646131603    2.15130086470745
H        13.03603887153098   -0.09558389058926    1.36829723188833
H        14.55452576724593   -1.30687397668905   -0.15971518850953
H        16.66687013170373   -0.25649658989837   -0.87492501856002
H        17.26153452499896    1.98798859786275   -0.09676121610355
H        11.92814571487822    7.44707270897887    3.12316523011976
H        12.89588428899046    8.08785849751143    4.48235253388056
H        12.65615164317369    6.32346810895023    4.28940588902764
H        15.23562351095568    9.01219218130375    1.45249189089738
H        14.49285571025468    9.55959895856827    2.97899226226656
H        13.47454405927191    9.13913631809046    1.56833690736708
H        14.57508960780712    6.44821337335595    5.57428649639888
H        16.56786439609841    6.31471790757490    7.00521602260964
H        18.79544448470624    6.83457709976057    6.08482586552235
H        19.02630499198635    7.48636387313249    3.71570417924934
H        17.02603227941090    7.63090969822352    2.27868098852143

