39
CSD_code = TULCIM | q = 0 | S = 0 | Stoichiometry = C15H17MoO3PS2 | MND = 6
Mo        1.51661933900044   10.37883572952825    9.64681607270726
P         3.83024933149333   10.11775507655167    9.78518476396324
C         4.29936773369297    9.84529100667454   11.55196506653338
H         4.00942973836838    8.80747114234998   11.75787928720163
H         5.38133286088773    9.93995189908314   11.69856556283263
C         3.55052202754924   10.78422822478908   12.47882854110567
H         3.97718845749204   11.78728845079813   12.46853907072757
H         3.56170864156099   10.41133656070214   13.50464746708251
S         1.76860609288084   10.95063125468024   12.03073863141485
C         1.58481743098852   12.76557107137138   11.96745698969508
H         0.51501047155751   12.90415038687681   11.79620328258219
H         1.84486490847947   13.15535124174007   12.95445645131938
C         2.38678065863767   13.46079344104903   10.88983571565923
H         3.45660693934064   13.42179088739149   11.09398290615112
H         2.07914282244477   14.50641842527614   10.82377280737862
S         2.11161768738687   12.73244551109167    9.22401402297701
C         3.82824529629936   12.62537939500515    8.60360435443639
H         3.68777526634958   12.25568420731775    7.58555526667804
H         4.21846754813058   13.64498853896845    8.56449247527816
C         4.73953260965410   11.69372134155563    9.38402186072731
H         5.08546401865466   12.16670609940523   10.31074003086892
H         5.61893156710361   11.46293820615773    8.77537341242110
C        -0.38333924198229   10.76732846196199    9.69943679206753
O        -1.49773093606668   10.99592884622460    9.74162352717370
C         1.36684723363204   10.02487234396563    7.75484171288653
O         1.27656128152297    9.81448084863955    6.63606738970289
C         1.13124366736623    8.52682970359844   10.03467621795056
O         0.90990299870604    7.42844254117223   10.25180954413219
C         4.82562996141287    8.84446983929783    8.97769796455852
C         4.14723738776639    7.89465897282304    8.22380180073790
H         3.06938164335642    7.96404281381017    8.14483102034520
C         4.84878033045631    6.88466813877141    7.58925270553065
H         4.32016013562591    6.14865386295085    7.00242225389859
C         6.22714440614290    6.82085680338403    7.70689839864688
H         6.77677602750948    6.03403876031497    7.21170349338524
C         6.90702921079647    7.76616613247055    8.45981048062865
H         7.98243666241648    7.71310245219301    8.55122699715963
C         6.21145780244104    8.77717334305352    9.09498348890938
H         6.74729998094688    9.51295803701406    9.68104217255017

