71
CSD_code = TULDIN | q = 0 | S = 0 | Stoichiometry = C32H29BN6O2Zn | MND = 5
Zn        3.70093310867658    1.35121359320854    4.18914698635056
B         4.48411087552389   -0.83413547894603    6.12320284491922
O         3.79212588378997    3.19539495800740    3.65574356876713
O         2.22177919855369    1.09644354539971    2.85674371459735
N         5.33307610569738    0.41733665829103    6.34789899040880
N         5.29698357775574    1.44703603169143    5.49618699627365
N         3.01320819735603   -0.41986088554134    6.28499363411437
N         2.55943977595506    0.67428734597638    5.67303300272651
N         4.66758025529775   -1.27785437502493    4.66422204599058
N         4.47360543914145   -0.42194659586714    3.66126860286128
C         6.12573909996536    2.38341031685990    5.95224145213394
C         6.70512187787172    1.94337353591345    7.15087080932888
C         6.17503997858648    0.68840538868289    7.35328226111450
C         6.39511972728032    3.61968601510965    5.22497708935777
C         6.42770516097558    4.84245680912680    5.88730854502087
C         6.70119410708858    6.00534520750098    5.19018624033036
C         6.95389147614274    5.95780332133658    3.82934876037237
C         6.93566408802302    4.74103349172422    3.16680677136943
C         6.65840658041972    3.57811780413508    3.85895382293920
C         1.25006517811457    0.76484811599505    5.90091052464266
C         0.85124249958690   -0.31473377532723    6.70034578277169
C         2.00763590334975   -1.03309901703210    6.91957652515774
C         0.46305112872689    1.85501700651846    5.34013207990551
C         1.00186619291391    3.13662866011925    5.26009152414592
C         0.27666598942363    4.16006276923053    4.67992524343367
C        -0.99218421239302    3.91927288707514    4.17970794924139
C        -1.53974572606604    2.65026032442998    4.27112684392967
C        -0.81929945091909    1.62276294894154    4.85051506394734
C         4.60664245289906   -1.08455268182296    2.51369992698722
C         4.90590716136532   -2.42561868971926    2.79686332676945
C         4.93636362351085   -2.49413928029901    4.17280036180820
C         4.42098143709191   -0.42398200961359    1.22939211595385
C         4.72742116776845    0.92678830398724    1.07945037970436
C         4.49383566036740    1.56719761910016   -0.12208224835170
C         3.96367086433127    0.86708782210158   -1.19359163923616
C         3.67366438790319   -0.48053255778139   -1.05887432020329
C         3.90030442793543   -1.12388735209951    0.14335080580595
C         3.46163194222071    5.29099716026580    2.59948166159135
C         3.13158205058730    3.82315075043211    2.77936065675356
C         2.14471875739324    3.27421009043724    1.96899736864085
C         1.74393085240584    1.93738987608877    2.05865692112538
C         0.64423606658180    1.47810125353913    1.12502922098460
H         4.77270844186611   -1.70050073217124    6.87552335758945
H         7.42060524094639    2.46169516865198    7.75565016185165
H         6.34616664353330   -0.01753718053027    8.14103110505422
H         6.22261659710399    4.87969270830563    6.94753235003019
H         6.71601526328811    6.95315139661735    5.70929766365274
H         7.16654966138599    6.86775627979337    3.28678948217365
H         7.14058961556281    4.70089681471263    2.10650371934985
H         6.65941264724045    2.62463814297687    3.35300416191046
H        -0.13022534671279   -0.52221341486276    7.07465079217960
H         2.16877318977829   -1.93175420698407    7.48082324858870
H         1.98690224844946    3.32518185124868    5.66090002703941
H         0.70324972994200    5.15043199964806    4.61811428022561
H        -1.55514951113164    4.71942177516281    3.72123621740788
H        -2.53089496130615    2.46032053357427    3.88433279113680
H        -1.23805938575478    0.62866715556096    4.90555697014678
H         5.09172651762661   -3.21649772459726    2.09953978300979
H         5.12976557921921   -3.32623508221021    4.81978194874528
H         5.15093150284990    1.47160014823981    1.91070318156987
H         4.72417325391274    2.61782575847043   -0.22305487177784
H         3.77784223232428    1.36972844007718   -2.13174441977315
H         3.26132742384194   -1.03001978163492   -1.89298221763862
H         3.65261764867436   -2.16944625742699    0.25227964549091
H         2.55601128590883    5.87649344556668    2.46803673798439
H         4.08079420395937    5.41447969561671    1.71275634930678
H         4.01942200175390    5.64842870698974    3.46077275824682
H         1.65365039661074    3.90897867468027    1.24882115441669
H         0.93969705960715    1.64877170906911    0.09290775113801
H         0.45453135385182    0.41968534302829    1.27679659263246
H        -0.26436340355655    2.04128172025411    1.32375706382720

