73
CSD_code = TULDEJ | q = 0 | S = 0 | Stoichiometry = C34H28BN7O2Zn | MND = 5
Zn        3.97636059059908    3.96459888711957    2.86572753850973
B         1.24910951754006    3.59661468669889    4.01043660853246
H         0.16505928716586    3.46080801542613    4.46339068189415
O         5.86185498240337    3.71906046741609    2.45533601542055
O         4.91930134992920    5.62511490201235    2.02135245742483
N         6.41923466445311    7.61443758643368    1.13119851096775
H         5.50938038892180    7.24277203825930    1.37460988449324
H         6.49719232538326    8.47105451528814    0.61336925465828
N         2.08313357063606    2.32163105427717    4.15897846201584
N         3.29663099429476    2.20562647759503    3.60697126437758
N         2.01228706864630    4.72863177456566    4.72100092853596
N         3.31072274026896    4.91341695214001    4.47102183053492
N         1.18399092235657    3.96672293060808    2.52005706161730
N         2.29865642391385    4.10815549756203    1.79931630527175
C         5.95311563298999    4.90634399287270    2.03241693950046
C         7.25266832724986    5.39503323542900    1.55069196658440
C         8.33040458360154    4.51007772194581    1.54764614239900
H         8.15511472218341    3.50950583743849    1.91410231536694
C         9.57059195613320    4.89715430221682    1.09056276243755
H        10.39735709633890    4.20332902574812    1.09394718146001
C         9.74702667122577    6.19407077773507    0.61947921393181
H        10.71506713259490    6.50682586911750    0.25419281945163
C         8.69833096980674    7.08418766039414    0.61340306591789
H         8.83997777553175    8.09166584770900    0.24708182329898
C         7.42951552697043    6.71406912566127    1.08330286522377
C         1.80283976608533    1.21747611276347    4.86298181350296
H         0.87079206169929    1.11055057048390    5.38060814313036
C         2.87397596617889    0.35610672496600    4.77216850440617
H         2.97188877514446   -0.61784731542217    5.20548134610829
C         3.80027620113630    1.02367571758815    3.95858298115877
C         5.11338887678421    0.57883467558486    3.50603959484440
C         5.97424217995661   -0.07984561595883    4.37973615829817
H         5.66341459783677   -0.26161175287676    5.39853116304414
C         7.22839742684554   -0.47603645023440    3.95407180787962
H         7.89502154563182   -0.97875692943299    4.64004284050932
C         7.63417281634500   -0.22258644575191    2.65423176523404
H         8.61810322760715   -0.52578855968165    2.32673606118740
C         6.77533096692088    0.41634231705585    1.77523920407260
H         7.08691051968135    0.60848664376568    0.75892716086241
C         5.51985127650241    0.81088973068752    2.19532764267908
H         4.83899832195759    1.28937178198605    1.50835238759009
C         1.57903239091805    5.67984542635204    5.55679328352240
H         0.56062338403571    5.70660642584079    5.88945996104406
C         2.63383887462551    6.51911264954034    5.85043544767992
H         2.63162582716619    7.37322788604539    6.49593749383916
C         3.71877102766019    5.99196110119180    5.13773403735226
C         5.10018011929580    6.44538353371419    5.02309918212219
C         5.39296361800018    7.79777462910568    4.87539732717187
H         4.59010107505900    8.52049715730414    4.89085997851349
C         6.69740903952302    8.20818366153424    4.67286044302661
H         6.91572729012757    9.25817498801402    4.54258713434304
C         7.72086423749020    7.27695594329950    4.62230349512751
H         8.73705857819685    7.59728119491513    4.44620513082431
C         7.43901610019355    5.93194817382725    4.79372010131009
H         8.23534063909679    5.20360106224035    4.75765946954676
C         6.13693991383148    5.51523210611237    4.99638036168506
H         5.91795894006480    4.46558541052828    5.13400190050611
C         0.12336827611395    4.29453838282492    1.77164064491237
H        -0.87214984911752    4.24292568443432    2.16468803689649
C         0.56765278394133    4.67233843862557    0.52262556466324
H        -0.02268142832373    4.97944256488485   -0.31595102363057
C         1.96202768257964    4.53869865030735    0.58395735164307
C         2.98037600121498    4.83221213704373   -0.41585349968223
C         2.81627101915503    5.89578172763744   -1.29986729876567
H         1.90779211499493    6.47932560655272   -1.26870327608340
C         3.82206821188062    6.22364926335159   -2.18983614790238
H         3.68978510173114    7.05588246396963   -2.86631601925363
C         5.00217487791568    5.49858691661298   -2.20642527551225
H         5.79363963383828    5.76708319910687   -2.89067323877817
C         5.16441986505129    4.42603471884798   -1.34488406531762
H         6.08206925980132    3.85649574508443   -1.35637884461734
C         4.15699641242130    4.08780682141439   -0.46202568711814
H         4.27664923404428    3.23935594253884    0.19661555659882

