53
CSD_code = TULGUC | q = 0 | S = 0 | Stoichiometry = C18H34Pt | MND = 6
Pt       -1.12239026661928    3.51798482767026    2.57163392697203
C        -2.34624774065436    4.99889327165058    3.37926724678092
C        -3.40304047344390    5.63867628993551    2.44400620460236
C        -3.61879570372764    4.81641462642343    1.16235629586517
H        -4.20511583892961    3.92447276495202    1.36990411013162
H        -4.16203666527554    5.40299003839130    0.42255421028141
H        -2.65564828112826    4.52129620016014    0.73376090425358
C        -4.74539535920557    5.74199386971619    3.18400374534995
H        -5.10810933097535    4.75834904559246    3.47749906908501
H        -4.63907631470381    6.34768952070654    4.08157157098881
H        -5.49773577638649    6.20441156807016    2.54713510927931
C        -2.98689014758626    7.05924907958776    2.04517809575500
H        -3.75861626563735    7.52333846782180    1.43293964290950
H        -2.83778896659172    7.67708195680982    2.92790442329850
H        -2.06292755248417    7.04629514382452    1.47673414615781
C        -1.83235251097185    1.83846102979321    3.94980203673335
C        -0.81095237665266    0.73527296636422    4.06026499400138
C         0.55450747824086    1.10254735972834    3.44767365578190
C         0.47999479650105    1.96698398359726    2.21784328166036
H        -1.77772611690736    5.80807306157259    3.84649597660500
H        -2.03812127297036    2.36722467384769    4.87938970662262
H         1.10447127907337    0.18462488829973    3.20914603597790
H        -2.88211421732191    4.50371599898004    4.20441806700598
H        -0.65728070583298    0.50531221353197    5.11730367131776
H         1.37925447665679    2.54986944789699    2.03826466625154
H         1.13942822645147    1.63879898331570    4.19962155004733
H        -1.20787996253838   -0.16728673715844    3.59293180099952
C         0.10147620056797    4.99891850659261    1.76404503359474
C         1.15813636194286    5.63880839474864    2.69938556151914
C         1.37382001605474    4.81657049483881    3.98105511572289
H         1.95994322612234    3.92450567385314    3.77348053224733
H         1.91722796336034    5.40306242073316    4.72080274369225
H         0.41064973810843    4.52164928210857    4.40972342066776
C         2.50056347138644    5.74223222580527    1.95953243739738
H         2.86344053713022    4.75861824069522    1.66614519352123
H         2.39428431256419    6.34786653254017    1.06192064685899
H         3.25275717278140    6.20478734068645    2.59647257570622
C         0.74184545098764    7.05936907963032    3.09811122443964
H         1.51342307982960    7.52346208947637    3.71053118053841
H         0.59294986580693    7.67719925903732    2.21535118116487
H        -0.18224359377092    7.04642928736704    3.66633915159388
H        -0.46699750236944    5.80802151335247    1.29660629636191
H         0.63748027454962    4.50361835795076    0.93905866464698
C        -0.41262483354377    1.83828136288769    1.19360636679739
C        -1.43419628000368    0.73523806374808    1.08315349792403
C        -2.79958930180872    1.10257586074540    1.69586658835298
C        -2.72496251873955    1.96719059398441    2.92556616408490
H        -3.62415033894763    2.55020390015150    3.10507676726372
H        -3.34947986894839    0.18466082442392    1.93459086194714
H        -3.38461245701392    1.63868377758602    0.94389878810547
H        -1.58798161533352    0.50537855909574    0.02611023244982
H        -1.03734101936782   -0.16741454185295    1.55037512139976
H        -0.20673275173348    2.36694835873980    0.26399050729069

