47
CSD_code = TULHIR | q = 0 | S = 0 | Stoichiometry = C20H20Cl2N4Os | MND = 6
Os        7.82784732571605    3.91415524360378    2.12045748149800
Cl        6.14448184646576    5.59543290971225    2.11865775878397
N         8.83448643419066    4.92464894142724    3.54604522772356
N         8.83670515101820    4.92209698657830    0.69446228624126
C         9.39951136943239    4.29052722283388   -0.34874390507497
H         9.30030930354610    3.21306888008580   -0.37330174146195
C        10.25054239402305    6.32122220560878   -1.27803375460119
H        10.79571700657005    6.86004933234901   -2.03741440549833
C        10.10660912152001    4.94271031075599   -1.33862575091479
H        10.53963041108309    4.37290009831853   -2.14590879666476
C         8.85177501144945    6.19521239135856    5.57867421216140
H         8.28065095954996    6.62862232074652    6.38482345534959
C        10.16866842381707    5.07034441642946    3.49592375300359
H        10.67710604156893    4.59183445126659    2.66891669213303
C         8.98235584467222    6.25625291344072    0.74654189388062
H         8.50416676283120    6.76346426201115    1.57448497111662
C        10.89308060438181    5.75648434594939    4.44965149544806
H        11.96493608144694    5.83030333621348    4.35179055616763
C         9.66814259008715    6.98220307758493   -0.20631499113266
H         9.74195821073874    8.05390768401309   -0.10677742580877
C         8.20125052452566    5.48748620326818    4.58816326374284
H         7.12379214815877    5.38791372208903    4.61114248624561
C        10.23034402534892    6.33933564951871    5.52005296486584
H        10.76788955472823    6.88504918287467    6.27994655035809
Cl        9.51120941304973    2.23285283592303    2.11865788411331
N         6.82154215334498    2.90328454198945    3.54601489712162
C         5.48735893678523    2.75761794394251    3.49590862204154
H         4.97893043479810    3.23612556715682    2.66889531741964
C         4.76293808575823    2.07150293228727    4.44964639122432
H         3.69108099713789    1.99770158021142    4.35179041645871
C         5.42566708246894    1.48865739454532    5.52005493846940
C         6.80423752671542    1.63277101406309    5.57867824608140
H         7.37535501544532    1.19937422542510    6.38483942747294
C         7.45477228322716    2.34047267061544    4.58815454158722
H         8.53223204441810    2.44003545275082    4.61113976693477
H         4.88811293647736    0.94297995078269    6.27996830689032
N         6.81937780023070    2.90587423685331    0.69442461380096
C         6.25653648306113    3.53744968052913   -0.34875563288602
H         6.35574093338288    4.61490801049501   -0.37330382498332
C         5.54940416456841    2.88527751106706   -1.33861870625112
C         5.40546185044484    1.50676704406511   -1.27802850150310
H         4.86026027495330    0.96794759321243   -2.03739577693554
C         5.98786557141585    0.84578014101610   -0.20631501608084
C         6.67368763938240    1.57172042192179    0.74652523698524
H         7.15187248597707    1.06450058839850    1.57446547863440
H         5.91403075287633   -0.22592206183552   -0.10677198653009
H         5.11636798721016    3.45509463654604   -2.14588891762786

