47
CSD_code = TULHOX | q = 0 | S = 0 | Stoichiometry = C20H20Br2N4Os | MND = 6
Os        3.94433396128515    3.50385562800180    4.01363368669201
Br        5.40645313852997    4.55467028455404    5.81973859733937
Br        2.47579726886968    2.44594067889096    2.21401082144698
N         5.61280825620580    2.85728482438495    3.03364235392558
N         4.00392387626205    5.24559596030696    2.95187313945065
N         2.27788010104032    4.15720814674593    4.99080298459328
N         3.88877527705278    1.76446908984249    5.07623305803014
C         6.63176143907363    2.27047966963856    3.68285111706863
H         6.53355679533236    2.15968017386989    4.75467809041770
C         7.78155187711850    1.83370650284398    3.05701501854851
H         8.56228775202225    1.37663007000236    3.64396340751407
C         7.91404417823966    1.99416521999516    1.68580391058819
H         8.80019282534399    1.66338438372216    1.16745317008404
C         6.86551336211425    2.59468764946038    1.00524032691331
H         6.90401669066799    2.74332805032251   -0.06224321537649
C         5.75028138697117    3.00667732467066    1.70586250190035
H         4.92505658112382    3.46077102976353    1.17346136457593
C         5.15298082290898    5.91400150335680    2.75916224528204
H         6.04538879558306    5.49883555227195    3.20845725270389
C         5.23695462475432    7.09299054014791    2.04699565256433
H         6.19410473920095    7.57769157948981    1.93768354023077
C         4.08888473771274    7.63497441881337    1.48891536073868
H         4.12151476085359    8.55459052830345    0.92624184331841
C         2.89730881245318    6.95193013031169    1.68086901633862
H         1.97050651743100    7.31883696072235    1.26926881104817
C         2.89772711606731    5.77932242841067    2.40845255966702
H         1.97145695175116    5.23713286088606    2.54526785356273
C         2.17925226101333    5.41418730832261    5.45387242489675
H         3.03475822616230    6.06063350688467    5.30906487436616
C         1.06590962746899    5.89799285223755    6.11016381437997
H         1.05905071039172    6.91883414492897    6.45782827420000
C        -0.02152410913318    5.06181209933980    6.31444237715854
H        -0.90675404126379    5.41010555712368    6.82271450454827
C         0.07078777317097    3.76127963565928    5.84178267048775
H        -0.74100341518028    3.06233714800719    5.96669041887757
C         1.22053330698239    3.35467195953222    5.19595629468128
H         1.28672933092895    2.34525023900044    4.81219096169987
C         3.64786563408848    1.75206918813126    6.39754866144685
H         3.50643101610573    2.70952210625504    6.88122018755344
C         3.59521899186179    0.59672997704639    7.15045738184474
H         3.40036187215643    0.66376627845919    8.20905383841082
C         3.79727662704703   -0.62852672748815    6.53311589695811
H         3.76110326425044   -1.54932385826165    7.09358549863575
C         4.04739933101767   -0.62682563755032    5.16900011303423
H         4.20919396339497   -1.54644608560780    4.62944911178016
C         4.08507231902816    0.57290024735859    4.48818680091698
H         4.26377466454833    0.57428887088199    3.42104142495062

