97
CSD_code = TULHOZ | q = 0 | S = 0 | Stoichiometry = C45H36BrN6O6P2Re | MND = 6
Re        1.61174962058034    8.91271957368924    5.63437417881924
Br       -0.00860861703334    8.91487936434399    7.52028337430420
P         1.81792117678344   11.37430776421129    5.78019755749901
P         1.85363678603334    6.47086319589818    5.86008460401502
O         2.42908523091028    8.75861775707784    2.37683593589356
O         6.96157609124187    8.73169834252019    2.46402017520398
O         3.14481188736442    8.92759450633300    6.92408104585028
O         5.31744310211991    8.99079270412810    7.38397257009512
O        -2.37245054963918    8.69192271071326    4.86723828608180
O        -3.38048579225121   10.71455106926106    0.94086258727580
N         3.42487623739226    8.88268380235810    4.40375882696944
N         4.69339453967867    8.75704387804570    2.46969831209650
H         4.69032759372727    8.66053630300184    1.46115318448214
N         6.99325450821245    9.09327201847226    5.23142541889104
H         6.92943178885637    8.97687464820042    6.23426895098312
H         7.83081733452495    8.83027877073324    4.73775804455540
N         0.40308317157632    9.02226076186821    4.35945866450950
N        -2.83424249624472    9.71355987532636    2.91010952005973
H        -3.81847620230428    9.67672457254034    3.15681278412661
N        -1.20093818844470   10.24479817459500    1.37290496317742
H        -0.95181277023526   10.60487418995029    0.46095153153761
C         3.44008917950662    8.79567940531183    3.07385086554646
C         5.91756466811642    8.80981606130676    3.09003639906145
C         5.83199385868917    8.94444042966557    4.53971841968649
C         4.58793777401117    8.95027780646791    5.11553511873261
C         4.38820864733499    8.96773195822368    6.58711087349902
C        -0.53006804700312    9.32371451000262    3.46554738678868
C        -1.95924504924571    9.19337693288201    3.85599732840554
C        -2.54751834104855   10.26418371717531    1.68516978964346
C        -0.23766293686504    9.80920446125992    2.21627809171381
H         0.79107324631230    9.82819239710686    1.88810228891949
C         0.50102266032222   12.23069907988600    4.86287315980989
C         0.72281137251864   13.17326343532619    3.86639419862599
H         1.72879547205241   13.48405531742982    3.62353677096115
C        -0.35208179348264   13.72762232663153    3.19129898450106
H        -0.17521405463631   14.45579008608355    2.41326237176002
C        -1.64755962914698   13.36001732382014    3.51448533324774
H        -2.48052813012713   13.79190780568844    2.98034149352736
C        -1.87236545331814   12.44529403753668    4.53196889589913
H        -2.88078265540182   12.17443607062212    4.80601012976243
C        -0.80523776384568   11.87600160271244    5.20049765848468
H        -0.97907135991865   11.15682254668239    5.99013028520438
C         1.75705907167277   12.15408433979517    7.41930779615280
C         2.18292858309567   11.46439921476831    8.54975673080041
H         2.52957718681163   10.44475462098782    8.46872595208514
C         2.15974818181605   12.08393237236170    9.78590934355818
H         2.48524068644128   11.54286696586438   10.66121080519613
C         1.71567409282978   13.39025165238994    9.89922555887816
H         1.69431848216780   13.87187595547701   10.86542237251309
C         1.29475434201691   14.08097582435634    8.77375758097566
H         0.94796370181478   15.10004229230536    8.86159648596007
C         1.31242809361339   13.46885220942875    7.53494331767343
H         0.97894631341651   14.00563842379237    6.65783069437530
C         3.40547869473147   11.88970825207846    5.08203687113398
C         3.61016015099394   11.74984931425594    3.70859449382119
H         2.78591515471834   11.44401659342470    3.07748127745527
C         4.86450037957649   11.96839280917241    3.17250387355010
H         5.02276859862704   11.85979867765856    2.10956249860254
C         5.92590211667149   12.30215876897527    4.00029422890710
H         6.90919316874997   12.44661543661473    3.57967441218843
C         5.72856022913246   12.43159629523931    5.36450391714060
H         6.55688374652894   12.67805107072678    6.01093819161501
C         4.47319868603219   12.22486357798764    5.90887183259299
H         4.32292266374587   12.31263025332592    6.97625620772773
C         1.69224397607986    5.77749570842181    7.53573796903385
C         2.21014324227031    6.47235054305774    8.62615589000295
H         2.67970490706929    7.43606588637412    8.48780094698463
C         2.11477505730708    5.93977996106403    9.89796115143287
H         2.51496960739492    6.48688252406612   10.73812838997098
C         1.50082822941872    4.71413119877435   10.09230844756428
H         1.42247883133222    4.30027523855251   11.08654604597529
C         0.97895159354480    4.02298631717738    9.01149100546905
H         0.49300140727951    3.07013124365456    9.16120495375472
C         1.06959401463646    4.54921901594143    7.73603295484144
H         0.65109070629345    4.00913039815917    6.89928490890793
C         0.68644692889457    5.49372785957113    4.87387099735729
C        -0.62349461735565    5.95612724450405    4.79012258904659
H        -0.90583504461025    6.87781000560047    5.28258755629868
C        -1.56570090770203    5.23283046766727    4.08199384105152
H        -2.58003883406354    5.59717468167199    4.02297373322935
C        -1.20776682253467    4.04867438339411    3.45826614304961
H        -1.94186886997184    3.48544978470107    2.90127277558976
C         0.09316982286538    3.58026705951668    3.55295600638639
H         0.37072842639792    2.65180442866429    3.07553702250476
C         1.04138057858443    4.29529532054194    4.26224586837598
H         2.05290015321195    3.92126182080223    4.34339939326263
C         3.50923395890198    5.97023875448278    5.31702231505849
C         3.77100042539218    5.92417886180311    3.94714723102337
H         2.96173450318541    6.08024812189442    3.24562498511608
C         5.05829616586121    5.69989246835836    3.49848412566895
H         5.26115243548725    5.66371335776033    2.43837259285606
C         6.09401311054615    5.53968246876052    4.40693039004202
H         7.10106154017374    5.38526175231775    4.04975809677232
C         5.83766384178726    5.58692785984562    5.76668952267566
H         6.64277756455217    5.46751737705813    6.47626090546597
C         4.54950797734472    5.80278708240557    6.22515040971329
H         4.35497764754705    5.84564458749408    7.28808003276641

