64
CSD_code = TULJAN | q = 0 | S = 0 | Stoichiometry = C30H22ClN3O6PRe | MND = 6
Re        3.06702551748006   -0.04508697081849    5.30120806242238
Cl        1.73061725846887   -0.28353554083141    7.14786938476832
P         4.37994980296663    1.63116289324590    6.53079103937013
O         4.31050495215733   -1.25025612776533    5.96325438541235
O         1.49562020722342    1.06967863302065   -0.91832305813859
O         5.38191744701299    1.33616686564112    1.39542456986202
O         1.95164229877215   -1.63502512498614    4.22059983219095
O         0.78651826610224   -2.11209460484385    2.39648681833901
O         2.15468361947870    1.14697794307156    4.59716679951693
N         4.30932534142627   -0.27601395027703    3.52632862636910
N         1.65061820735310   -0.05360852776666    1.05798241451853
N         3.40616579055457    1.22470568692472    0.30220819696758
C         5.53252798766451   -0.67329366567659    3.47674462566455
H         6.05227279685641   -0.69521624472322    2.52016406530736
C         1.61261890978964   -1.47409197377982    3.02183002357003
C         6.25002215741655   -1.19579308869758    4.60232218130392
C         5.57271664855940   -1.53965342941987    5.80769939386835
C         6.29272154936022   -2.19284964683242    6.82053343227839
H         5.76792914718017   -2.47355111021782    7.72110626523532
C         7.63630010745681   -2.45246238964022    6.67264454647747
H         8.17451624229917   -2.94184039576435    7.47042066863585
C         8.30420987931882   -2.09457098276415    5.50462071358227
H         9.35696251869898   -2.30460296808277    5.39881776663740
C         7.61229643274648   -1.49095506499483    4.47996642269831
H         8.11462308403540   -1.22410710857567    3.56181105101321
C         3.61632792485642    0.06044732062119    2.36725865894426
C         2.33801282238498   -0.38130378367570    2.17442853954755
C         2.11958218200611    0.77092872520226    0.06483310125247
C         4.24447317758175    0.91064005880195    1.35398582400271
C         6.02647466886557    1.78398169570660    5.79694335285327
C         7.18570377504094    1.40487996697250    6.46454959304241
H         7.13387070657417    1.06746937994415    7.49005346532224
C         8.40234480368710    1.45906211022034    5.80680521933337
H         9.30294131219408    1.16633391165261    6.32556604282752
C         8.46498600924286    1.87697504669470    4.48738298892336
H         9.41689987732857    1.90835141049029    3.97886283331153
C         7.30983347620832    2.25157553562819    3.81701490229256
H         7.34688062210264    2.55863315606350    2.78381092743094
C         6.09329220856873    2.20387226898379    4.46899411605542
H         5.18097017451949    2.47983054658165    3.95664859200403
C         4.67302083931772    1.36679565522462    8.30297069985020
C         4.45389777620736    0.13668116622384    8.91050460678011
H         4.03773657367801   -0.67813389654164    8.33877868932682
C         4.72970200350554   -0.02246894095293   10.25763782848908
H         4.55052152654546   -0.97549067588479   10.73191468025999
C         5.22280680145696    1.03824219171669   10.99874120372441
H         5.43264593147913    0.91187268103414   12.05030656856354
C         5.43914294745879    2.26710100203303   10.39416595563470
H         5.81721875347083    3.09650208982726   10.97309980724330
C         5.16606915252174    2.43534856667744    9.04990440474161
H         5.32788616092167    3.39322316169117    8.57538110149456
C         3.61764983459954    3.27164093303619    6.44237850860380
C         2.24953720842946    3.34830642252205    6.69456016471367
H         1.69669607149060    2.43995451247855    6.89497800539927
C         1.61840078105051    4.57808235121770    6.67048238335855
H         0.55788758265157    4.64057466629747    6.85995918687152
C         2.34415983174396    5.72771359401333    6.39763180845578
H         1.84829034436451    6.68658447593463    6.37428550911114
C         3.70480904062042    5.65014350232227    6.14995107971283
H         4.26880180358211    6.54597269534274    5.93591332814514
C         4.34744512541525    4.42443258047321    6.17206270669503
H         5.40851728304188    4.36351004156437    5.97305961080103
H         0.75450507933513   -0.53037462583500    0.94666452055470
H         3.79425163558271    1.83062539424025   -0.41334874353425

