43
CSD_code = TULLUJ | q = 1 | S = 0 | Stoichiometry = C15H22ClN4Zn(1+) | MND = 5
Zn        9.03487774498922    4.43900700358053   10.26292017216576
Cl        8.02236497739519    3.23777234497967    8.79956442651748
N         9.22791663494259    3.35737690714334   12.00062404589140
H         9.70081040577530    3.85065140274298   12.75851143385389
N        11.08867569441588    4.24949449754512    9.71448200340794
N         9.51170550103268    6.25596279333833    9.55448430130622
N         7.48704380179491    5.69917577598765   11.01334834258469
C        10.02764910271631    2.15471761381911   11.71102435107578
H         9.56308123025164    1.63300876398332   10.87059424786258
H        10.01161980754509    1.48577842569532   12.58211789602976
C        11.48053458448544    2.49685143611752   11.37985372800591
H        11.85009517495204    3.24510396802211   12.08535946416364
H        12.07761246178198    1.59388396003876   11.51466373065858
C        11.73282730043171    2.99008234188998    9.94990908130435
H        12.81402288680086    3.03353625500165    9.77987367706021
H        11.30273457184956    2.26913715818420    9.24504686179617
C        11.50721052416760    5.16900328106767    8.93743413626632
C        10.63008574218856    6.36544089283377    8.85493423579422
C        10.87370384769721    7.52165702076266    8.11503691904096
H        11.77147030070575    7.64204876039039    7.53178806304381
C         9.91567675147326    8.52669428823248    8.14051021356360
H        10.07586716487959    9.43125888429632    7.57382326630010
C         8.75002067039136    8.37593801864265    8.88012928260991
H         8.00734107114373    9.15637243836331    8.88748976068317
C         8.57651309293395    7.19191018855799    9.59536078955985
C         7.39696316208730    6.82384747329785   10.42041026365124
C         6.48151175707475    5.10381429651227   11.84449164937812
H         5.87470050883192    4.45332041380241   11.20399544351474
H         5.82085003664742    5.84796329005056   12.30238436792488
C         7.11203296910436    4.25693715513811   12.95667918643870
H         7.77039607864729    4.89004114268597   13.55664084962067
H         6.29845188490130    3.92287458837471   13.60203130197496
C         7.87925812743033    3.02036982991837   12.48762547978379
H         7.95815837749732    2.31440020656307   13.32545353996540
H         7.33883179627358    2.52806170250983   11.67529110050845
C        12.73922386614135    5.16322661334845    8.09795489005284
H        13.32622641224503    4.26084281475404    8.23286342067747
H        13.35872118068781    6.02626905310945    8.33685903982528
H        12.45776896732018    5.23116675977214    7.04780459693799
C         6.25049007353430    7.77660959744497   10.44076483355493
H         5.85931314920803    7.88878370529916    9.43028430370065
H         6.58358043348791    8.75506972617197   10.78334910436489
H         5.44256017213876    7.43643721003024   11.08013219757792

