48
CSD_code = TULQIB | q = 0 | S = 0 | Stoichiometry = C22H19Cl2FeN3O | MND = 5
Fe        4.59643492296161    1.51583679076533    3.47470059986020
Cl        4.42091871758525    3.46335037172240    4.07057850758939
Cl        6.17955807940261    1.10589053521316    2.16462615622847
O         6.43255219755512   -0.82956767646242    6.21526497078234
N         4.06170379590439   -0.17234144570090    3.61205027603354
N         5.73677530310872    0.96957057508524    5.06657400097567
N         3.12790046050218    1.55968525636482    2.15936991891973
C         3.09722672976288   -0.65274569897417    2.77060555343580
C         2.62429573843581    2.72221631337078    1.53977745401304
C         6.73461019031449    1.37852576854810    5.91585365048639
C         5.60910568250886   -0.33330888720657    5.27414429452516
C         2.58222478981232    0.39468407130209    1.93935014419767
C         2.71000886930786   -1.98714555926344    2.80965960755607
H         1.95252505529533   -2.34406743029827    2.13060964676832
C         7.16351943012689    0.24392239766977    6.63269699376948
C         4.28197333311755   -2.37149532945554    4.57997867196699
H         4.77022002532878   -3.01046097529606    5.29772350078598
C         3.16118733681086    3.19066338137910    0.33658290240117
C         1.13346516208033    4.59805914671635    1.63286421078920
H         0.34582290486675    5.14282203381149    2.13223795834309
C         1.59478537587181    3.41566066191664    2.18916840519780
C         8.16512396672809    0.31166407147515    7.58135680271362
H         8.48616651956479   -0.56342151394873    8.12211847059287
C         3.30540828037812   -2.85116913506079    3.71916254748531
H         3.01330819284443   -3.88833947376910    3.75408789865610
C         4.64273484015711   -1.03339134144855    4.50365108061296
C         1.48791381462538    0.14593271607272    0.94890938632350
H         1.19888030525013    1.07267223803283    0.45960472249858
H         0.61723532203830   -0.28123953942127    1.44478462658004
H         1.82756621160636   -0.56291700649817    0.19477845553845
C         1.00485667032936    2.87512510551920    3.45630965521323
H         1.79393961028500    2.67196084841952    4.18155262892132
H         0.47399350414915    1.94114906505245    3.26829457937577
H         0.30814301809759    3.58951222572300    3.88585489047355
C         1.67201928286676    5.08429030922624    0.45562158288534
H         1.30830622678691    6.01062977859369    0.03689969600597
C         7.30960201318135    2.62168844323829    6.13929834085434
H         6.97388232841458    3.48463255953229    5.58857084444731
C         8.73084451186007    1.55747300978421    7.79204989608456
H         9.51910823693004    1.65715895276994    8.52240043317430
C         2.67217213630669    4.37893701299605   -0.18712283853225
H         3.08507408568143    4.75211062157358   -1.11285940662615
C         8.31188918274067    2.68570339945260    7.08693403347530
H         8.78683334059069    3.63344617656350    7.28933531049054
C         4.22043552090874    2.41311861844719   -0.37653131950117
H         5.06310803975884    2.21853013128752    0.28400999863429
H         4.57149833588787    2.95564639423364   -1.24994792093956
H         3.83424240137035    1.44614203094531   -0.69894182006396

