60
CSD_code = TULQOH | q = 0 | S = 0 | Stoichiometry = C26H27Cl2FeN3O | MND = 5
Fe        3.92297726000245    3.83815992838517    6.44143429022947
O         1.50184375952954    6.38037002197005    8.45313518530503
Cl        5.83559964583257    4.51752401715810    6.15889430318446
N         3.33236271213603    5.41454327384357    7.58268586913544
Cl        3.81615950150228    2.53820532230718    8.08405798505804
N         2.17730083050252    3.74513861765070    6.12626660775759
N         3.95062432097747    2.47538903084154    5.03953120148333
C         5.29380870410286    0.10895055492779    6.06734137524624
H         4.36011734374774    0.55856733335715    6.41481407696199
C         3.75004312106000    6.36575153497118    8.48044363082886
C         5.77516813805475    0.85669710870292    4.84863649814092
C         2.00807688800324    5.45746019858197    7.61553432423925
C         5.10933036007174    1.99762679973344    4.38923038838256
C         2.76566546695841    2.05819841657841    4.67762527886916
C         5.58776203306245    2.72105777779060    3.28627392234706
C        -0.07946868214802    4.43536553357948    6.61598943168423
H        -0.73776912957850    5.09594187628739    7.15632182149326
C         1.69123498208236    2.77971033742916    5.29179678621428
C         5.01641045519332    6.77131223258308    8.87829076627231
H         5.89340582511551    6.30719487448591    8.45843191159473
C         2.59539556669204    6.96649587297171    9.01985377926698
C         1.29335558983001    4.55336975543685    6.78424507817819
C         2.51771713171062    0.96162612871944    3.69121212107260
H         3.44908663552817    0.65155533019654    3.22403642173498
H         1.81954619131898    1.29014783607826    2.92319726548166
H         2.07910643506290    0.10580823627029    4.20395461828304
C         7.38104106405657    1.12588039276487    3.07101225709247
H         8.26444725062455    0.78272189630095    2.55317510530524
C         0.32317988647811    2.61819744270331    5.10181576735059
H        -0.03830630881607    1.84113677720785    4.44793734768044
C         4.88213913242533    3.96654225860533    2.79851343146286
H         4.12211946825772    4.25125200445368    3.54068338889456
C         6.91512830108551    0.44016320925585    4.17514720968087
H         7.44353769580413   -0.43541842905466    4.51914750537697
C        -0.56577823256906    3.45378819298289    5.76422642412022
H        -1.62826906074097    3.33546072141293    5.62433723914192
C         5.03082430596567   -1.36568256014569    5.75613670226595
H         4.33689953771549   -1.46760816391450    4.92371419383999
H         4.59890268726285   -1.85290413347698    6.62701629388458
H         5.95150188177234   -1.88362180522803    5.49862014936188
C         3.93421015508028    8.36903486330670   10.34857733386671
H         4.03685173446937    9.15336261751798   11.08275284682936
C         6.72033028856964    2.25854049013774    2.63433925573061
H         7.09452140143302    2.79162389793406    1.77418625841640
C         2.66500717133464    7.97622395413164    9.95975673181137
H         1.77470174192426    8.42704569924919   10.36644136229950
C         6.31836201452277    0.25760576889882    7.19371761496287
H         5.94342767655848   -0.21206225621034    8.09924697284159
H         6.48536079003341    1.31147185034853    7.40230450518943
H         7.26753168909197   -0.20024942233538    6.92437638598272
C         5.85292192844425    5.14102189270276    2.67026366149858
H         6.36517680455356    5.29973331039431    3.61554697039056
H         5.30667537850623    6.04627101815790    2.41276139507462
H         6.59401304463855    4.95964295488811    1.89659917394547
C         4.18030382303768    3.69398987204273    1.46546419950047
H         3.65325950602748    4.58427048554771    1.12875670355597
H         3.46123649357992    2.88385159087674    1.56491488140452
H         4.90563247453113    3.41535142463300    0.70448151138951
C         5.08243910561481    7.77957408686063    9.81940828155038
H         6.04800808238144    8.12312014621614   10.15768599986235

