57
CSD_code = TULQUO | q = 0 | S = 0 | Stoichiometry = C22H26N6NiS2 | MND = 4
Ni        3.59439701183749   10.51481087838144    9.56273217442908
S         5.53238965675245   10.84594619473519   10.47598358311999
C         6.69892786000047   10.87560934113536    9.22397016113984
N         6.42209871104083   11.13622067458040    7.95877818339725
C         5.29906710418893   10.88502055551927    7.33447458202729
N         4.27157143345937   10.15829273088998    7.80731615133868
C         1.36098097176270    9.71341722957391    7.84430062255804
C        -0.09792271088247    9.80178695372690    7.49615124545664
H        -0.63713131072651    8.95103198233816    7.91179660088696
H        -0.24261717822354    9.83190541785461    6.42042389498929
H        -0.50890562308614   10.70206540021459    7.94752680572302
N         1.76268544736774   10.19040311355938    8.99204595601594
N         0.75628295927749   10.63268199814926    9.78982285541616
C         1.09748158216818   11.06973484176232   10.96194122882129
S         2.75433236888802   11.19437022090072   11.46816404438681
N         0.16664293873948   11.42686017484967   11.86487637195034
H         0.50371945032693   11.85416839459393   12.71267605269006
C        -1.24153842747801   11.48414594550460   11.57556315339360
H        -1.56004115639475   12.50000382988628   11.32028990398099
H        -1.80858001014746   11.14278336971410   12.44190219536267
H        -1.43705645077821   10.82953371636285   10.72969303070429
N         7.99420304497030   10.74352274078852    9.54742217969280
C         8.42435535049862   10.51568943618554   10.90804795161091
H         9.36005675099854    9.95217434114115   10.87625475080383
H         7.66900646113051    9.91220725331259   11.41746649540634
C         8.61960661954172   11.82626164635703   11.66617596113472
H         9.35576968258200   12.45321458748039   11.16810266057521
H         8.95920017536543   11.62175601116348   12.67741798989803
H         7.67767575949946   12.36464619243714   11.71697338297883
C         9.00303719495084   10.82756707669095    8.51187383764640
H         9.93311670551236   11.16911254958348    8.97090178263109
H         8.67275128132079   11.56891330581117    7.78055170226703
C         9.21665824242738    9.48260214200104    7.82129394091057
H         9.98154613301897    9.57229289071326    7.05454613944201
H         8.29037793560490    9.15502649646203    7.35656515528221
H         9.52868450197909    8.72724190006041    8.53899009253647
C         5.22829424080970   11.42418642371021    5.95742378217012
C         6.38233130218103   11.56375237543704    5.19244835323627
H         7.32592028691131   11.24134533649628    5.60504500538683
C         6.31270317129797   12.09361355459915    3.91816979062598
H         7.21110982347302   12.19045964698755    3.32611877925478
C         5.09407363505465   12.49910525056275    3.39895666472438
H         5.04055841775870   12.91175104451717    2.40225917798082
C         3.94474392890243   12.38108310035269    4.16317344408567
H         2.99523641455675   12.70927862030475    3.76664822132412
C         4.00853724147265   11.84735853395490    5.43597263635915
H         3.11420702182351   11.77500608498851    6.03810163887776
C         3.64967543666315    9.30438396897263    6.91665540929212
C         4.45370375373151    8.61722757960364    5.99415153863522
H         5.52146034644111    8.78262873446393    6.01951247103511
C         3.91924598680652    7.72762524068867    5.09277493100972
H         4.56553954710924    7.21145663069542    4.39872269096677
C         2.55221503311029    7.48209098341690    5.09575743422659
H         2.12536460474798    6.77062508546994    4.40529385597218
C         1.74496004979267    8.13727388763036    5.99718436833271
H         0.69131267510208    7.90858869450826    6.01177578423165
C         2.25827661475411    9.05853768821591    6.92034120166820

