57
CSD_code = TULRAV | q = 0 | S = 0 | Stoichiometry = C22H26N6PdS2 | MND = 4
Pd        9.84856395369007    6.48229167277292   10.70422063632712
S         7.83691796683177    5.89905123323108    9.78568367738470
C         6.71370943856312    6.08077099611444   11.07158558928458
N         7.01013045291479    5.86733062572147   12.33599278201949
C         8.12178230354452    6.09080822853382   12.99057788683812
N         9.12261549752325    6.87760068167799   12.57737865875010
C        12.08802071912382    7.34719793557430   12.51377365786139
C        13.54565203924086    7.27246792801795   12.88430961426154
H        13.99228230563060    6.43072613026577   12.35949606238056
H        13.67020410207816    7.14348854308291   13.95546567124520
H        14.06833399265231    8.17330686919906   12.56419062473448
N        11.72717072398788    6.92774359626975   11.33204329449099
N        12.74419731008947    6.57446719108274   10.51039417165133
C        12.45162295765024    6.17207594516222    9.31095821120993
S        10.83652437741365    5.94819149018186    8.70711013265992
N        13.44032886705242    5.93033496075973    8.42731528155572
H        13.16539033348118    5.50741972211001    7.55504119136229
C        14.83755901927088    5.95486210244352    8.76977253527609
H        15.41481077875157    6.31283453405240    7.91783571044726
H        15.20188004912429    4.96275507054261    9.05534094284924
H        14.96627784309685    6.63235593122418    9.61050309968116
N         5.42213275647497    6.29733467428589   10.77361402199437
C         4.96483443672058    6.44829104761453    9.41125749326237
H         5.75426833465229    6.93141791776942    8.82960165802134
H         4.08727121248359    7.09943802865552    9.41973334787382
C         4.62216639221572    5.10283040310253    8.77680419562250
H         4.26258059061939    5.25236461616343    7.76281441204500
H         3.85286256933091    4.59120294154145    9.35090603436171
H         5.50906083427952    4.47654138108806    8.74368129980952
C         4.45056055603790    6.39328600417661   11.84318404140523
H         4.72440062049283    5.66707432035257   12.61255289166859
H         3.47175035450512    6.12899197088441   11.43810842192859
C         4.41299752608333    7.79503928397908   12.44743787499905
H         4.15175686606365    8.53155516356827   11.69100581934449
H         5.38883713383768    8.04885649120959   12.85331983278381
H         3.67808577823196    7.83966656245374   13.24674269837830
C         8.19804352913135    5.45884769166485   14.32829832648783
C         7.05569459682809    5.26663821357796   15.09802076998541
H         6.10571590629329    5.61513504384640   14.72268278224777
C         7.14592118045693    4.65166943288509   16.33238339997200
H         6.25707227819874    4.51256415629322   16.93031982987448
C         8.37297996088493    4.21437921300539   16.80386030797725
H         8.44173917986553    3.73485047178165   17.76914432632578
C         9.51104209354509    4.38583191153446   16.03270859327343
H        10.46643538818347    4.03303576757526   16.39210827732690
C         9.42667346064128    5.00438587528411   14.80013465352534
H        10.31059925120917    5.11902980831130   14.18627851848819
C         9.77308514392735    7.67453205361494   13.49273659816768
C         8.98829059534122    8.29478507719150   14.47929710553131
H         7.92402663722706    8.10579864299083   14.47566637306194
C         9.53018635325980    9.14447421673550   15.41297047397484
H         8.89561652257883    9.60743417169689   16.15361293495260
C        10.89142884255386    9.41659948314802   15.38056680729848
H        11.32838956828175   10.10020157203937   16.09239276296180
C        11.68106926167638    8.82006205061931   14.42501249236979
H        12.72943730277757    9.06937781311927   14.39737381441661
C        11.16501195338651    7.93499513822923   13.46547737600855

