35
CSD_code = TULSUQ | q = 1 | S = 0 | Stoichiometry = C15H13F3NO2Ru(1+) | MND = 10
Ru        0.38573171253568    0.36537543698205    9.56812177187106
F         4.30224744291369    6.07870790388011    9.36363260552082
F         2.40958075169648    7.04269407349372    9.71656952787933
F         2.99626010086320    6.52565060998061    7.70859472687899
O         2.14707873084096    1.72122419608742    6.14110828428044
O         1.11074486879253    0.46756464929422    7.64831035617205
N         1.27368111714201    2.24694884320981    9.51555279203725
C        -1.34162765724831   -0.48529509933667   10.75326686386821
C        -1.42179474981593   -1.02223685440313    9.43437370422716
C        -1.60374325666952    0.05003498216086    8.53503686163928
C        -1.59891238965555    1.26127449961273    9.27806685350224
C        -1.45200307962001    0.92735240532425   10.66301695871606
C         1.71665582160350    0.01631232914638   11.28020512521232
C         2.31546147500009   -0.49004277072092   10.10157687917022
C         1.59686114430038   -1.50008034479088    9.45158750275021
C         1.70778967653255    1.52564205476561    7.24164698605122
C         1.80561807367083    2.59296812281689    8.34098535809666
C         2.37544971441119    3.83636005117587    8.10720728860066
C         2.37946313622797    4.75473161275984    9.14534431135018
C         1.81122125203824    4.40113266673512   10.36588186206733
C         1.26810759042394    3.13597839148549   10.50840946438057
C         3.02255119502283    6.11829507443615    8.97373680137246
H        -1.35587578757532   -1.06197836168385   11.66910570533811
H        -1.48460767031000   -2.07030374682883    9.17954711349073
H        -1.76556163067471   -0.03737922766967    7.46948169744073
H        -1.85005697194181    2.23917904947239    8.88453834152155
H        -1.59941656313578    1.60251083378023   11.49473722925021
H         2.22180838655061    0.82476509996662   11.80095328630686
H         1.23122201494512   -0.69188887168637   11.94880923705008
H         3.21802496140043   -0.05196209928764    9.66903915760335
H         1.05541916282596   -2.23020514191511   10.04769125717987
H         1.93224840967923   -1.84494832776194    8.47949333560123
H         2.78562458155386    4.04576466610489    7.12918273260141
H         1.78710545404532    5.09905795932946   11.18852359206015
H         0.82184298162979    2.83729533408455   11.44736442891081

