32
CSD_code = TULTOL | q = 1 | S = 0 | Stoichiometry = C14H14NO2Ru(1+) | MND = 10
Ru        2.24531348182273    0.89232555242323    9.64780914217742
O         4.09244550868929    1.10156667429679   10.52209299240245
O         5.33374427378014    2.27462485698256   11.93504161714925
N         1.97121022607833    2.51568365451993   10.91379431499089
C         3.04904521562248    2.89289279847834   11.60620758835919
C         4.29631191636885    2.04118557513034   11.37237951163218
C         3.05428599120858    3.99913880740223   12.44274576320702
C         1.77708019710820   -0.43486815224792   11.30481395400548
C         0.85767752582255    3.24047073484832   11.01235739700707
C         2.59628749310529   -1.15718901150009   10.42842803994758
C         0.78321793016657    4.36212673542360   11.82078127407865
C         1.89576157949333    4.74841453551924   12.55750804107105
C         0.55765452032867    0.02714336143806   10.75395645356111
C         2.40923813110954    2.25629296221912    7.92374095364622
C         1.11888643674534    1.63887291374851    7.89426908877413
C         2.71731973692385    0.00405793441447    7.60346361103948
C         3.38373879430535    1.24248225893197    7.72130669503742
C         1.31572226367352    0.24562248282183    7.69763912050767
H         3.96656416011760    4.23416470350765   12.96974147798314
H         2.10818065985816   -0.15516073471210   12.30766753167326
H         0.00141051804270    2.92026809949940   10.43383629666853
H         2.13598209200997   -1.82321358586933    9.70318887464089
H         3.59554608781156   -1.43212530920151   10.74770569839785
H        -0.13764460998169    4.92078349165355   11.86831147447920
H         1.85853599378354    5.61494509139398   13.19891526532209
H        -0.09328995501956    0.62212733915171   11.38816868480602
H         0.01767740274962   -0.63641705055997   10.08141436724989
H         2.60266965884172    3.32244395072508    7.91896360298163
H         0.17166727295862    2.15673102974764    7.83213658908900
H         3.18341624308336   -0.93504506565445    7.34354039121229
H         4.44912018117195    1.40038910415306    7.62523767957567
H         0.53742307221988   -0.47843573868584    7.49393650732593

