32
CSD_code = TULTAX | q = 1 | S = 0 | Stoichiometry = C14H13ClNO2Ru(1+) | MND = 10
Ru        1.86618087470308    1.15574726342258    9.89687073178631
Cl        1.27308525507744    6.41107599365813   13.77078708662933
O         4.86665540945882    2.61015937735438   12.25671153191004
O         3.67913556693833    1.39424068645473   10.83528410074425
N         1.53095220898977    2.79754172270831   11.12934994427985
C         1.02960872594304    0.45919851441330    7.92536694563569
C         2.43888250110200    0.24467085447873    7.89299495130340
C         3.07500474429561    1.49926372224048    8.01165775288219
C         2.07319089376882    2.49548795768730    8.15608809128920
C         0.79759515412747    1.85168514292627    8.08729432926137
C         0.13923808329085    0.29724301477147   10.94569161942916
C         1.33760519422189   -0.14232559124951   11.55719023302719
C         2.19891051908169   -0.87502150450933   10.73063446321337
C         2.58299007049266    3.19490857393411   11.85471696432249
C         2.55727212759322    4.30072203075042   12.68226528730110
C         1.38206771523431    5.04518327368639   12.76465198512881
C         0.29222568941102    4.63701414940158   11.98828940250106
C         0.40847643443001    3.51675316902612   11.19174077113897
C         3.84923093617366    2.35224618866436   11.67017370721229
H         0.27505384622183   -0.28430970042262    7.70290945392882
H         2.93364403002359   -0.68918205464941    7.66929202748582
H         4.14005433828310    1.67714617419096    7.95491265392948
H         2.24509417480370    3.56501287169417    8.14205154742815
H        -0.15635283686197    2.34888296625240    7.97871324334632
H        -0.36606954470272   -0.38446716054350   10.26439568870034
H        -0.54208820596122    0.90069784807094   11.53830575971089
H         1.62323850853392    0.16078894167482   12.56707906496741
H         3.18585351465949   -1.13447915032264   11.09780286453064
H         1.77497021487088   -1.56132813578475   10.00202143227746
H         3.45074748482516    4.55096877592345   13.23437931057052
H        -0.63242687556188    5.19018634140901   12.01025472899914
H        -0.42662675346676    3.18898774268787   10.58702232512878

