34
CSD_code = TULTIF | q = 1 | S = 0 | Stoichiometry = C14H13N2O4Ru(1+) | MND = 10
Ru        1.16198979600282    1.70379482001196    4.82949621398657
O        -0.66655384471904    1.86725963489147    5.75038955287537
O        -2.02382247991718    3.17280517848779    6.92168531196542
O        -0.06233733402563    7.78471932435389    7.84328195100972
O         1.90510347613987    8.22020287001869    7.07716577949545
N         0.94373457213927    7.51832269388232    7.24696395186270
N         1.17027272315969    3.66740302612948    5.51309666797473
C        -1.00269424262629    2.96145872502835    6.32658711162417
C         0.08411087347614    4.03859896790101    6.19733434727890
C        -0.04400616589234    5.28873599058395    6.78623648599458
C         1.01405497402621    6.17018235040101    6.64991730204702
C         2.15404297992842    5.78539491378966    5.95438407849246
C         2.19094345331329    4.51897812423636    5.39845999823213
C        -0.21404524937144    1.03698496105715    3.20866070209809
C         0.15455656776012    2.37359372938932    3.01834999008698
C         1.54285866704113    2.60403611984419    2.86245068623033
C         1.49179421730726    0.04538638540566    6.33703805149867
C         1.67710816834749   -0.50371161054466    5.05010821406701
C         2.77111641881191    0.17289915026486    4.43378707644644
C         3.24671591322347    1.16008307331558    5.33735393205213
C         2.43774643101251    1.09009803368351    6.51646755284001
H        -0.94594925757568    5.53985981416029    7.32832159406703
H         2.98466335262006    6.46891356657544    5.85649735283679
H         3.06141082867708    4.18740248268429    4.84867262387428
H         0.32795303652882    0.25815343960026    2.67849186516803
H        -1.24300790702252    0.80379917553105    3.46001827094738
H        -0.56890286047981    3.18887504383486    3.09378933842805
H         1.87832481176250    3.63051445219450    2.74460665479286
H         2.11350374203035    1.89263517987725    2.26877368345262
H         0.78269636908898   -0.29961897216305    7.07700411062611
H         1.17524092633886   -1.37978685902274    4.66561985831300
H         3.25381925757278   -0.12227236913859    3.51097282114233
H         4.16788903070828    1.71708341636649    5.23493232756052
H         2.62826875461257    1.60991516736957    7.44798454063184

