99
CSD_code = TULTID | q = 1 | S = 0 | Stoichiometry = C46H46AgN6(1+) | MND = 3
Ag        3.74516106655525    5.21395316743798    1.88179864549615
N         1.83515910801861    3.70783334727663    1.86271309666515
N         3.81233040337297    3.61952839865015    3.83098902727087
N         6.50872726675740    4.46464273582140    3.91132039581022
N         6.83798474869005    6.21023753902472    1.33532623286123
N         4.92290817102709    6.47717530468938   -1.14378629510449
N         2.47715159037564    5.35911407629238   -0.29324051712151
C         1.15138243614659    3.57978964884976    0.72807608725372
C         0.41447229025480    2.43769176427638    0.44216706321948
C         0.38517230260261    1.41173455769404    1.37219977173724
C         1.08111335623564    1.56403008032697    2.56020840800058
C         1.79913653340526    2.73400649093575    2.76976166046203
C         2.52004295086240    2.99314686430081    4.06959268415803
C         4.85559515362981    2.66747834566166    3.40229647138107
C         6.04949493198701    3.50508939508703    2.93635136414237
C         5.43866274807399    5.29790526321275    4.39954065210639
C         4.31151874678001    4.41439379656641    4.94114647629169
C         7.65808280732631    5.22674131085775    3.43218085715980
C         7.35877019918120    6.41936801984351    2.54591049440638
C         7.68473909517080    7.69382442773566    3.00093184260205
C         7.47190609345986    8.77777978165148    2.16853674142233
C         6.98214627442781    8.54898554167732    0.89478345162213
C         6.69347939522807    7.24473237656472    0.50408682515951
C         6.27336517836938    6.98126260237207   -0.92921505714751
C         4.79488549083454    5.05207669947277   -0.93238908745267
C         3.35041871048854    4.61649976492276   -1.19207488262007
C         2.50662410464689    6.78288223311635   -0.66806632978234
C         3.94559029773902    7.23753946677528   -0.41467157461098
C         1.15110501693256    4.76711429711884   -0.20412911751387
C         4.51850679036648    0.40019626950931    4.40486055035320
C         4.77787294212270   -0.57890416100510    5.34739300332188
C         5.73578215836498   -0.36453206642739    6.32339528846081
C         6.44421127777626    0.82445599172344    6.33689252099362
C         6.18277461306344    1.80580825692681    5.39615171033629
C         5.20416260906395    1.61138045980455    4.42785238732336
C         5.50658958608181    7.60596862962799    5.38927391223936
C         5.90103452363019    8.49727522379262    6.37195107819443
C         6.68624489854619    8.06342619558113    7.42606938678535
C         7.07037734722745    6.73448952161664    7.49647517638522
C         6.67244894690775    5.84299039775537    6.51677098617011
C         5.89207011114890    6.27432136947716    5.45047906884424
C         6.52643125984786    3.25765521246910   -1.25004653037733
C         7.36716827316799    2.50594077006664   -2.05249095547148
C         7.42578827880727    2.74710425428063   -3.41415449277472
C         6.63918339404896    3.74218399771648   -3.97032081123708
C         5.79674626671145    4.49166523849809   -3.16938982827261
C         5.73604404898224    4.25728540527987   -1.80018968984656
C         2.80582351872815    7.17348322901848   -3.16962942869646
C         2.27353691275265    7.41640399390132   -4.42438816892061
C         0.90803175089950    7.57034099432618   -4.58726467181730
C         0.07665540813714    7.49733820924561   -3.48280933644087
C         0.60874382001119    7.25785272878194   -2.22864271390286
C         1.97811558224658    7.07910246601480   -2.05687719137396
H        -0.12787921860067    2.35897181326704   -0.48651977776204
H        -0.17612901020708    0.51113672382125    1.17707894368615
H         1.06321997603268    0.79439562934117    3.31555632467738
H         2.60307506177602    2.06694336771156    4.65221623145317
H         1.90721455115552    3.69576901919330    4.64382454170364
H         4.45726265213086    2.15062480076580    2.51757057930541
H         5.72231570942708    4.03535646350604    2.00923501315823
H         6.88083237953895    2.84311047782083    2.68522387210370
H         4.96874193070240    5.88268846912909    3.53591347230962
H         3.51257606301727    5.05599746554385    5.31992000438587
H         4.68194191056636    3.79334360428725    5.76481495094174
H         8.20485152246920    5.58629680196472    4.30743889653458
H         8.30530546879571    4.53721446283792    2.88519141195618
H         8.10369967785951    7.82864161234846    3.98547305935288
H         7.70573664148062    9.77880719457579    2.49784941107516
H         6.84207747312244    9.36641525761509    0.20468599616234
H         6.96567107042479    6.25743104661407   -1.36538202086558
H         6.36128975100832    7.91897464762769   -1.48600281104669
H         4.99753250929969    4.81157538830951    0.14922333374478
H         3.26098351921845    3.54795202597058   -0.97940268968515
H         3.08660080012906    4.78761646086092   -2.24312438806678
H         1.86772079358855    7.31391654920745    0.04995903526048
H         4.10579366564354    7.13104506091185    0.70274825621974
H         4.05998081569004    8.29301070997472   -0.66967707474693
H         0.47301358964208    5.51049622980100    0.22706157771853
H         0.75774804346186    4.47534169252029   -1.18715291096955
H         3.78928397449365    0.21295937914060    3.62772924241747
H         4.23613786317178   -1.51209397836222    5.31502715527723
H         5.93847372232654   -1.12627413574755    7.06017652097587
H         7.20786662201275    0.98881961957609    7.08208496005142
H         6.75761656645147    2.71853434458976    5.39462686388344
H         4.89694914144581    7.94971792905014    4.56322214404906
H         5.59610862820175    9.53099079246468    6.31258481745003
H         6.99708541283120    8.75822201349147    8.19078687642862
H         7.68033725578075    6.39122310138305    8.31803393131138
H         6.97355046510935    4.80818352865018    6.57140974609080
H         6.48786115146528    3.06965690528986   -0.18606899813052
H         7.97797031422608    1.73207751011035   -1.61291228531285
H         8.08197026953920    2.16209990110969   -4.03985563028405
H         6.68165510432152    3.93458428852776   -5.03146893182979
H         5.19005765016579    5.27012147231811   -3.60471475619814
H         3.87224772999035    7.07100159659812   -3.04753141609837
H         2.93078787943919    7.48754857302914   -5.27804661194237
H         0.49447058225504    7.75706570237979   -5.56621958964323
H        -0.98813907641542    7.63375087613457   -3.59560433017617
H        -0.05123939142567    7.22434771854075   -1.37308958509613

