97
CSD_code = TULVAZ | q = 0 | S = 0 | Stoichiometry = C30H44B20NiP2 | MND = 4
Ni        0.74678564041868    7.77292232649668    3.25327080002592
P        -1.24466920371503    6.75233750979887    3.57106576951111
P        -0.23018864566144    8.69527260653093    1.43654837476321
C         3.10703611660074    7.53713866233009    5.20375657356296
C         3.70172947324596    8.17344383055693    3.98375618578989
C         1.54406640323744    7.18430374446511    5.00715813998355
C         2.59813277087263    8.44356591722775    2.83741294606407
B         2.65712726997892    5.86799136457150    5.09954113250649
H         2.89023016051639    5.23256261840110    4.14912615444511
B         3.26791005000577    9.81527117281443    3.64339074622332
H         2.61071071534527   10.43705239162383    4.38023666862632
B         3.90389195341250    6.40237473095386    6.21168882139454
H         5.02828700108294    6.14912997332212    5.98798225644789
B         4.92814535770018    9.37104157327018    3.99457366845734
H         5.40465991708051    9.67367131505305    5.02403314863398
B         3.45386613561460    7.98539160972907    6.82438570504885
H         4.27223206422094    8.80458956550438    7.01892093936592
B         5.23079228058842    7.78341996707535    3.30744121778735
H         5.91391113242005    7.01074661992539    3.86868283998443
B         1.92143203006109    8.44476156800153    6.11040045527906
H         1.64295593573953    9.54416339443076    5.83027935896514
B         3.76987284341524    7.23105068323071    2.51402759497345
H         3.43370517729311    6.11262526525459    2.48499703068968
B         0.69210263584110    7.30381754027543    6.53768064437419
H        -0.43179141580546    7.66105574110340    6.51671823335418
B         3.01272661019011    9.88044394086686    1.93413200500275
H         2.12301346780163   10.54551647219239    1.53400610973329
B         1.13634450331601    5.74800448229225    5.91464437418979
H         0.31912574580756    5.02974512823496    5.45577407793474
B         4.53273341479637   10.49377415754118    2.65097304757139
H         4.76937627231303   11.64527591113246    2.71711824663247
B         2.64567740670212    5.22833444436467    6.72281978733311
H         2.89635211001605    4.09188898375784    6.90173814272321
B         5.76862527552078    9.23958461089287    2.43601661310255
H         6.90998110151814    9.50857069443580    2.32983433720955
B         3.14600947910204    6.53627403857687    7.81170884623414
H         3.75247706434401    6.32135293610604    8.79776650198853
B         5.03942256942563    7.90697651360169    1.52636217597642
H         5.63861517644333    7.21043168623863    0.79007341520952
B         1.91687880657556    7.80826041644319    7.73515217873329
H         1.64746837749212    8.51510561725325    8.63742474635318
B         3.32529159312312    8.32064578987092    1.24466291786022
H         2.65675436722967    7.90872794223795    0.36437066160701
B         1.41355753000332    6.11069913427333    7.63558538188154
H         0.77335917410624    5.59784322368779    8.48099142414812
B         4.57657207682963    9.57464765113584    1.13974810342982
H         4.84916781407446   10.07631073596209    0.10940827962901
C        -2.50436715350967    7.50505403983187    2.41885047460798
H        -3.35669800270764    6.83020180541154    2.30036071033766
H        -2.86804595400003    8.43840654746855    2.85661258242538
C        -1.82341253978490    7.78798043843493    1.09133589192751
H        -2.46016934784386    8.37943121128453    0.42755627022684
H        -1.58747036295109    6.84700469938315    0.58675844674426
C        -1.05923626140425    5.16162397687761    2.69271730747629
C         0.18937236229008    4.88579052361893    2.14672724393778
H         1.00476761022914    5.58941605596637    2.30562622092835
C         0.39985022373586    3.73566082599935    1.40853384580919
H         1.37398586331827    3.53242992091539    0.98982613829055
C        -0.64458344304942    2.84797240473237    1.21046821365419
H        -0.48708470626387    1.94547937388829    0.63905379672704
C        -1.89542720720884    3.11903897537748    1.74331130024795
H        -2.71061540122580    2.42837294729888    1.58358226296242
C        -2.10694658991842    4.27221106552315    2.47695565610421
H        -3.08666155063647    4.47839707674555    2.88551131225533
C        -2.36144833250030    6.37684366313998    4.96486721840864
C        -2.48905156213314    5.10967302693869    5.52013481737569
H        -1.93771457987639    4.27854956776498    5.10682511217500
C        -3.31748527307149    4.90574641757615    6.60925292263243
H        -3.41147424853263    3.91602388201508    7.03039609810962
C        -4.01676467588601    5.96392130729670    7.16309130334579
H        -4.66043313912246    5.80222458484200    8.01451961373110
C        -3.87764969781197    7.23493393398912    6.62987991691617
H        -4.40842133468599    8.06743469573184    7.06761314273525
C        -3.04994520892683    7.44067898069739    5.54322792172537
H        -2.92486935593015    8.44037124046909    5.14860193344836
C        -0.97583857998147   10.22329389000338    2.10517433570017
C        -0.69670772888228   10.53392871286826    3.43145224662069
H        -0.01295424585682    9.89939330663659    3.99330586735908
C        -1.27822202823362   11.63240075698630    4.03781748300077
H        -1.05490023394110   11.86212346402577    5.06883056480747
C        -2.14735036377381   12.43341969393015    3.31596522095963
H        -2.60285272981002   13.29466286504748    3.78136897161873
C        -2.43557527807451   12.12875576021299    1.99444621427827
H        -3.11621951401024   12.75255331286155    1.43348332876150
C        -1.85831195190260   11.02681556178828    1.39017572554489
H        -2.09089660896085   10.79370278924425    0.36020907300111
C         0.20134862884938    9.12784688416082   -0.28329138441416
C         0.46397854423653   10.42882230268467   -0.69462801436543
H         0.38415665571093   11.24558674122471    0.00715484872582
C         0.83320527497593   10.68568770920206   -2.00286716277677
H         1.03155036340993   11.70099796440720   -2.31206222507642
C         0.95600787872457    9.64798001318937   -2.91047309242675
H         1.24706035102110    9.85098312533793   -3.93001176319980
C         0.71595994763696    8.34575884806326   -2.50356376936160
H         0.82394825868621    7.53058972574340   -3.20369131796616
C         0.34805967981802    8.08734301906886   -1.19724554220612
H         0.18578981353461    7.06596416095311   -0.87983406447567

