78
CSD_code = TULZOQ | q = 0 | S = 0 | Stoichiometry = C34H37CuN4O2 | MND = 3
Cu        7.14703231571104    8.83295546284508   17.67077125506054
O         5.31545647468991    5.49897547247300   21.48250016059657
O         2.85898227077549    9.26221106060695   20.79521533965668
N         7.47888552704664    8.43709780320000   19.50444039508270
N         5.29800147114822    8.39057245155950   17.55838393110965
N         9.11891663781256    9.95300473711010   15.77334233967990
N         4.27978028980208    7.46674479814813   20.92212532069190
C         6.67467685217322    8.39196877744363   21.82469764031406
H         7.01227627447295    7.45062119661476   22.25986913208438
H         5.74523479632244    8.67993173348897   22.30992994851839
H         7.41025496323314    9.16530736942203   22.03580729752797
C         6.47515416787330    8.24869872470148   20.33311112962555
C         5.19212562097734    7.87447625379960   19.89085066707667
C         4.68002589601297    7.83513242492171   18.57893789157169
C         3.34215956768886    7.15889695245599   18.38833084862758
H         3.29773126800877    6.67480540052357   17.41562932029549
H         2.53234708307418    7.88589662964362   18.46106275916643
H         3.18532454060019    6.39367850390268   19.14445420605621
C         9.19754170398519   10.00137604882831   20.38959256598108
C         8.51823132792994   11.08924213435066   19.85929286055110
H         7.67276877158861   10.92243996414031   19.20797383033441
C         8.91153412003969   12.38103596066776   20.16319531255841
H         8.36996010820322   13.21707774660906   19.74466725302868
C         9.98947496190008   12.60355593604189   21.00127310859065
H        10.29565465014005   13.61186065254040   21.23867587804864
C        10.66874854744728   11.52448282590020   21.54180732354220
H        11.50627933793862   11.68872504210807   22.20449782738529
C        10.27338255228881   10.23460592084326   21.23946940649663
H        10.80281656483106    9.39653714855181   21.67186153369669
C         8.82161302239989    8.57217563321634   20.04526258741929
H         8.90973964039877    7.96219193996040   20.95463680258521
C         9.85145679495831    8.00946249176326   19.05645088828116
H         9.57012376368514    6.99902850968448   18.76929723770761
H        10.83398199417581    7.98511999434095   19.52223994920175
H         9.90166459494932    8.62511503949882   18.16177366162826
C         4.67647468498883    7.23436283804003   15.45289466014212
C         3.60869936497884    6.86055101697849   14.64534188565559
H         2.70405098131720    7.45408551041039   14.64791659630993
C         3.69140390585526    5.73685456625555   13.84287806595017
H         2.85272738058979    5.45690453854835   13.22159990362990
C         4.84515948794071    4.97107119619752   13.83880533688490
H         4.90980432137411    4.09182498625977   13.21455002569022
C         5.91324368196381    5.33673259141983   14.64013668617597
H         6.81603020482272    4.74288956742139   14.64165031489886
C         5.83055257070144    6.46221847777926   15.44016336756969
H         6.66342677632941    6.74624914360524   16.06756181087324
C         4.58866596605329    8.49541130999448   16.28982321600923
H         3.53110629616056    8.71513136024747   16.48877399020433
C         5.12465044097508    9.66447633140499   15.45539300609960
H         5.13379147669397   10.57423169756996   16.05069040605342
H         4.48416981446571    9.81275638090139   14.58844147968177
H         6.13578973436109    9.45807618377257   15.11318784724751
C        10.09594908494689   10.47153880682994   14.99779403968098
C        10.28961272848583    9.95092274571275   13.71038003156532
C        11.30308934517478   10.49107045179080   12.93673670522740
H        11.47180620602846   10.10444573373131   11.94258153150084
C        12.09602438244437   11.51712140178020   13.42307745616824
H        12.88108007030028   11.92711637315049   12.80593983688021
C        11.88864899748019   12.01982677298660   14.69700926552294
H        12.51296282985784   12.81879980923378   15.06854753292756
C        10.88999942801463   11.50883854099632   15.50902696551021
C         9.41307674273846    8.84253877094673   13.21740517493143
H         9.46939883174757    7.98365532502226   13.88616072083979
H         9.71006441128826    8.53137761716258   12.21970607885231
H         8.37149252894485    9.16328119815647   13.18877351898240
C        10.64406271560632   12.02437707578736   16.89189737907218
H        11.33005182307808   12.83237955912942   17.13000206877237
H        10.77074686335368   11.23075730720686   17.62860884246384
H         9.62222391763373   12.38994757353846   16.98945754412994
C         8.30641620149936    9.49781969648861   16.48808995031224
C         4.42985871624369    6.29763664791941   21.63729151443145
C         3.29031492633287    6.21443387962719   22.63721460311964
H         2.74430050286625    5.28385925626097   22.48035802052666
H         3.70791374450764    6.18154512578524   23.64418285719556
C         2.44810433478240    7.45737679321388   22.38280415800981
H         1.43824235474937    7.22519333095668   22.04263415504781
H         2.35722598009271    8.10303994977689   23.25658823476245
C         3.17514676779324    8.20906381830124   21.28189560456698

