55
CSD_code = TULZEG | q = 0 | S = 0 | Stoichiometry = C23H28CuN3 | MND = 3
Cu        1.10106184538675    4.94770866833124   29.72708238887711
N         1.74185311447050    5.05713012111936   27.92617604773513
N         2.47249874092146    3.98462340317917   30.63312428198616
N        -0.41298626165178    5.69284504626866   30.22369716304117
C         3.39975936095643    4.46746090943771   26.20213808138542
H         3.62305269363657    5.48761606299752   25.88834982847128
H         2.67470925042224    4.04296184429130   25.50863481872665
H         4.31475828330487    3.88681319166417   26.13264354565172
C         2.86634356410741    4.44870329711820   27.61972117830983
C         3.64702565366819    3.75119425558847   28.54582095543038
H         4.53924930450195    3.30536727579704   28.13000185164656
C         3.47403907610315    3.51777045073259   29.91390626119045
C         4.54585962004248    2.67287731959461   30.56420632212781
H         4.10089646972907    1.82588040179978   31.08428933240572
H         5.10719207930985    3.26140885864073   31.29082049459186
H         5.24469533436901    2.29610723938817   29.82331298584524
C         0.54632307254867    7.10828756152299   27.43641160601462
C         1.46262982485000    7.82597918934066   28.19956378162443
H         2.41912404049420    7.37998827494028   28.42937161787037
C         1.16322515938187    9.09104057131574   28.66928018327930
H         1.88770455887329    9.62934496931423   29.26323379553661
C        -0.05845786557090    9.67140843929063   28.37312724784372
H        -0.29362628763876   10.66306756311926   28.73352609457749
C        -0.97288825597550    8.97230419196419   27.60467753416073
H        -1.92703569603907    9.41913453250251   27.35971599307370
C        -0.67447582775245    7.70129112441461   27.14242802105307
H        -1.40701053463243    7.18048996100098   26.54602661153053
C         0.93799944478244    5.73490717204070   26.92466858138099
H         1.50863630279438    5.90260346214177   26.00009029239517
C        -0.26547193217262    4.84720285378684   26.58301322026055
H         0.08826192959045    3.84786369085827   26.33703835939855
H        -0.81677321678447    5.23486255247901   25.73014083244803
H        -0.92533156445256    4.77312495135877   27.44507700436758
C         1.91580297727880    2.23787152161494   32.27442130382600
C         2.42123519822650    1.46939366659653   33.31512666262453
H         3.19216314526861    1.87705355826147   33.95534935807238
C         1.95118021890075    0.18681032259067   33.53569581322092
H         2.35473238919993   -0.40218138707781   34.34704904038355
C         0.96941738810143   -0.34251949812362   32.71583326167087
H         0.60493299119817   -1.34543455583845   32.88508059462730
C         0.45867065354975    0.41860200246997   31.67776522081590
H        -0.30814057365162    0.01006259696979   31.03518822589468
C         0.92656607473394    1.70161978186232   31.46029889707577
H         0.53579268162062    2.29943210689453   30.64873315844959
C         2.40573053452277    3.65412501953048   32.04859774587853
H         3.40000936410598    3.76037034537067   32.50613125401016
C         1.46473422751169    4.61484678358046   32.78213721685539
H         1.77817417044964    5.64315318343133   32.61564680483031
H         1.48210496190448    4.40387727593514   33.84963363350839
H         0.44750059350183    4.49539872472170   32.41615415720320
C        -1.22986148368970    6.50145334822109   30.34832098585327
C        -2.26856165850958    7.47042533163896   30.53380518611111
H        -1.96660969435332    8.40988872992975   30.06998621117193
H        -2.45116250101972    7.63081211857126   31.59696996865140
H        -3.18565294043709    7.11886961536751   30.06095898510594

