55
CSD_code = TUMDUB | q = 0 | S = 0 | Stoichiometry = C28H20N4NiO2 | MND = 4
Ni       13.38100021923430   -0.66537917719605    1.69646974590984
N        12.18970445243211    0.69079333871808    1.48592741156633
N        10.93834502322548    0.35975548327174    1.19527341305979
O        11.77498167819103   -1.75397224146517    1.41701772506148
C        12.66901226172083    1.91419812732685    1.52359493202125
C        11.89509440580327    3.10584104030068    1.18160064874552
C        10.55075798106687    3.21215774731173    1.53974083661819
H        10.08622640882757    2.41088463768956    2.09166162138473
C         9.82684513301206    4.33841574866872    1.19774694688985
H         8.78864154523511    4.41477831758139    1.48520529222577
C        10.42595425776735    5.36625216497166    0.48785248542523
H         9.85727052261285    6.24465953376498    0.22119687418635
C        11.75669221546310    5.26129003360645    0.11531440504835
H        12.22518206217890    6.05483341001176   -0.44773706736279
C        12.48981518573213    4.14216934704239    0.45744503093894
H        13.52045609572218    4.05757881334222    0.14837979416700
C        10.80388198067586   -0.96913187203736    1.17151201528673
C         9.47558998262347   -1.51203021484669    0.86094537206125
C         9.28013401788796   -2.89231404886801    0.88449492373492
H        10.11603201452822   -3.52893822652539    1.13090143496423
C         8.03550409577779   -3.41916931809823    0.59996759452005
H         7.88435111050814   -4.48833547254290    0.61976183126855
C         6.98028632167038   -2.57557768534588    0.28927014801134
H         6.00741404287207   -2.98890950136617    0.06621520904851
C         7.17098329996140   -1.20196983247852    0.26201265932406
H         6.34583814428486   -0.54930524178431    0.01706793788197
C         8.41240014411128   -0.66674172727757    0.54564773215153
H         8.58066519988894    0.39842258748640    0.52471068601085
N        14.57229434443701    0.69079292577427    1.90702293293806
N        15.82365371468838    0.35975453403584    2.19767511691558
O        14.98702062816236   -1.75397292024305    1.97591474536343
C        14.09298653673603    1.91419794439088    1.86935890418325
C        14.86690553486937    3.10584002629330    2.21135271053902
C        16.21124085292601    3.21215627417305    1.85320771549260
H        16.67577075423097    2.41088217513910    1.30128698123027
C        16.93515473703795    4.33841495705576    2.19519679085829
H        17.97335762122992    4.41477618119946    1.90773599375188
C        16.33604808540895    5.36625258280607    2.90509173912359
H        16.90473281363368    6.24466023676824    3.17174417336593
C        15.00531160111524    5.26129038485710    3.27763573055752
H        14.53682362203510    6.05483470979593    3.84068736084691
C        14.27218739606483    4.14216938567025    2.93550904637521
H        13.24154727279586    4.05757976604375    3.24457704410286
C        15.95811866134944   -0.96913287912512    2.22142738664025
C        17.28640984515333   -1.51203053591673    2.53199857607390
C        17.48186718997487   -2.89231443667680    2.50845097713079
H        16.64597211141093   -3.52893899179330    2.26203642605261
C        18.72649586041102   -3.41916813269033    2.79298629257349
H        18.87765123833937   -4.48833341586945    2.77318962097737
C        19.78171128139304   -2.57557489727498    3.10368860549697
H        20.75458259325987   -2.98890583961406    3.32674953830753
C        19.59101292485194   -1.20196713027885    3.13094373331654
H        20.41615558045014   -0.54930145232829    3.37589397604781
C        18.34959684306554   -0.66674076557555    2.84730228418300
H        18.18133055195040    0.39842354211515    2.86823795740713

