53
CSD_code = TUMDOU | q = 0 | S = 0 | Stoichiometry = C22H22N2O6W | MND = 6
W        19.46108927625136    6.18241967993604    4.77508879356659
C        20.33537357897845    5.11722206326436    6.40029529081109
O        20.49785857570266    3.79169071992518    6.26732330407442
N        20.79960856879274    5.46805283466521    7.61931925871779
C        20.81420019236661    6.79093461077771    8.17568931441144
C        21.27706889927551    4.35366988238997    8.28022626602169
C        21.07302133112067    3.29049227132293    7.39278467739484
C        21.42880798458531    1.99424965192328    7.71020114578955
C        22.00092615618474    1.79809756808967    8.95775686003330
C        22.20545191227139    2.85181436796759    9.84279259474449
C        21.84874004157808    4.15182368734246    9.52471051235934
C        18.16241172838183    4.47365236921240    4.46363635416820
N        17.18722194506811    3.96813270956154    5.17466020739778
C        16.23548262267583    2.96292545170018    4.71933131886295
C        14.83848865423822    3.59893819283657    4.69039405329951
O        14.47280680745913    4.09246928527416    5.95595370031143
C        15.39823326747539    5.05376726641450    6.40815533623441
C        16.80800638588554    4.45618813365886    6.48468466448384
C        18.44863977470972    3.75101188590917    3.22180215927703
C        18.17363939705207    4.06672689235752    1.96078175484883
C        18.76243926036903    3.08997474593672    0.98659373553077
C        19.17027472461297    1.90294968026070    1.87339663531768
C        19.26385801575193    2.47412020202922    3.29617869303159
C        20.80773841125714    5.37170159977804    3.54271659397294
O        21.61271397969670    5.05953112304120    2.79233445806097
C        18.19638692829642    7.20747794310395    5.90825523276709
O        17.53711929238818    7.95150334828983    6.49052122461053
C        18.61428094304250    7.08679804119149    3.22542581349603
O        18.12633267786828    7.64288063558804    2.34862301454679
C        20.65430934635708    7.75519879881475    4.95025931610293
O        21.30457611951498    8.70185118627975    5.00728026948389
H        21.83981981806277    7.09742970983821    8.38956249189687
H        20.23599821806279    6.81446358491100    9.10171472991963
H        20.37518647938485    7.47977565469980    7.45545381078786
H        21.27101451004568    1.18327411602409    7.01867458179594
H        22.29638687661302    0.80223889837979    9.24902817044232
H        22.65539127524719    2.65081050546903   10.80277658448601
H        22.01095475971848    4.96597952110208   10.21245826288624
H        16.23704049651754    2.11835311491974    5.41680511864118
H        16.50453404715632    2.62112337485441    3.72032351026466
H        14.83368849870094    4.41281833173707    3.94912591528041
H        14.08419365533630    2.85825508957101    4.41974139241980
H        15.05615872193630    5.37166085231091    7.39374351373370
H        15.41348921046871    5.92010452503726    5.72990197217949
H        17.52615208287784    5.20685861430987    6.81716900854683
H        16.80414068851403    3.61208327032655    7.18434990576777
H        17.63031734528490    4.93569073404613    1.63202393573789
H        18.05641048261942    2.80236848361325    0.20559522496577
H        19.63162674866678    3.53896623950358    0.49716328233771
H        20.10811575268336    1.45323240812584    1.55287862599645
H        18.39737465185032    1.13248563980923    1.83500924442118
H        18.88589977666325    1.78328618059651    4.05292118610522
H        20.29419910435606    2.71837432201913    3.56370697744431

