41
CSD_code = TUMFAK | q = 0 | S = 0 | Stoichiometry = C20H14BrN3O2Pd | MND = 4
Pd        6.82808909899556   11.66367670235834    1.65269282310847
C         5.40396088706201    9.41014465863506    0.56512467816805
H         5.15496835252165    8.40580603507185    0.22470481978767
C         4.46167746745911   10.49808738568954    0.50608202113414
C         3.15504223457316   10.51530722798306    0.03253922671620
H         2.66538365199410    9.63060169581519   -0.34675580793615
C         2.45736111774600   11.72440433823005    0.04857325640138
C         3.00856222142779   12.91636421525717    0.52220531356105
H         2.41141267327109   13.81603877439545    0.50307621605744
C         4.31154089945812   12.89759513958697    1.00576779168073
C         5.02932874294191   11.68888757158326    0.99194314470226
C         5.09450859455343   13.96123941763648    1.58081296945815
H         4.70945994852032   14.97447352544279    1.68874629923389
C         7.57530075839052    8.69247151087849    1.07100536162309
C         7.32111311838999    7.46547218993006    1.68152020814114
H         6.35610877392999    7.28252863147517    2.13292574890830
C         8.32237905174439    6.51510724898848    1.74951329882692
H         8.12871681266736    5.57188983149701    2.23778472622643
C         9.56783934573391    6.77180550758803    1.19997346391675
H        10.34646254728759    6.02703453037609    1.26038981498368
C         9.81694161689443    7.98630717846733    0.58008484439635
H        10.78659934771890    8.18912273259441    0.15306696396836
C         8.82944107373037    8.94881267643918    0.51623364642044
H         9.00842963112756    9.90052568074630    0.03078296973059
C         7.09409788715783   14.61812819685016    2.60948335152378
C         7.68318926116364   14.33273402879554    3.84156754945963
H         7.47977618509906   13.38085628862556    4.31704650356373
C         8.50230791295574   15.26729814342882    4.44260649075353
H         8.95904831784684   15.04197266945315    5.39360460151389
C         8.74629378836456   16.48248129529404    3.82197127470260
H         9.39869200066704   17.20489104783609    4.28789048439344
C         8.16000875847833   16.76825801700683    2.59979518361974
H         8.35376605408761   17.71192617761286    2.11250624074933
C         7.32804255862621   15.84622185923927    1.99309220521815
H         6.89008454292059   16.05126230151082    1.02633315703964
Br        9.06984663905994   11.63283066625912    2.47386489884347
N         6.59340577711910    9.68828580890085    1.00051069308141
N         6.27541125347549   13.64924388686300    2.01658146438087
N         1.10666659665249   11.74272492778178   -0.44582945587909
O         0.51262349324138   12.80154959235780   -0.42766355519892
O         0.63961100494676   10.69823068551749   -0.85235488698230

