42
CSD_code = TUMFEM | q = -1 | S = 0 | Stoichiometry = C13H18CoN2O8(1-) | MND = 6
Co        1.69698442360412    0.79706061705175   12.05248296784388
O         2.60258314977969    0.31310216819418   13.65433973352098
O         2.53781566512344    2.45595936513759   11.98609270283316
O         0.26742700060687    1.40312321769365   13.07756558830684
O         0.80742098783009    1.21484505914213   10.42312033996601
O         4.23208890405250   -0.11740403806617   15.06786998728074
O         4.06297280031963    3.61429365862149   10.85877237959407
O        -1.37488781270531    0.70178893890287   14.40024270780479
O        -0.72073195435248    1.24329804119394    8.84111463621575
N         3.29870088117534    0.15616670673753   10.94473371978484
N         0.73254787045038   -1.01043673973809   12.12354135029398
C         2.88888039501179   -0.94027097035640   10.05704872639200
C         2.48954274809993   -2.24764809148732   10.76423039454496
C         1.71257357023864   -2.10417608599078   12.08501680498462
C         4.53706237444976   -0.22972773262583   11.64805188735045
C         4.85649243903181    0.61508326062010   12.87610502779071
C         3.83337223695584    0.27142298896082   13.98139772273799
C         3.57216464506064    1.36811420449955   10.15191111315302
C         3.39595894243735    2.61747585773600   11.06450207524008
C         0.12138030554178   -0.93122232324061   13.46236940683695
C        -0.40186338994261    0.51718915840776   13.69307902163742
C        -0.33327785929487   -1.28280796859211   11.14034370202894
C        -1.18975019375034   -0.07297702923199   10.78466989002580
C        -0.33188174585117    0.90102632501383    9.94656768764745
H         2.04228128845349   -0.57314368313634    9.47403559568106
H         3.70583000153992   -1.16930995869917    9.35397949970127
H         1.90602227245706   -2.82926297492760   10.04566803120859
H         3.37946497540361   -2.84285096597345   10.98512208406065
H         1.20424901560984   -3.06080529687217   12.28658568115879
H         2.41671865506642   -1.92430354287041   12.89938114579215
H         5.37353706492215   -0.18250868421599   10.93261534243227
H         4.44648173080460   -1.26613221628000   11.98142005390670
H         5.85447537858386    0.36405037011830   13.24094967013917
H         4.82072131270136    1.68026208053585   12.65843772793332
H         4.56982671555268    1.34694072640022    9.69787029759580
H         2.82043657998694    1.47604169358251    9.36912847873947
H        -0.68070221279380   -1.66710228207094   13.59311322438870
H         0.88317345486374   -1.08668105785738   14.22722196414555
H         0.12241671117451   -1.64179745432980   10.21464991563708
H        -0.97092756866164   -2.09120942186517   11.53232510986757
H        -1.56546059606660    0.43480930760648   11.67029642436553
H        -2.03822116347107   -0.39367522772874   10.17693017943102

