26
CSD_code = TUMGUE | q = 0 | S = 0 | Stoichiometry = C7H13ClO3PtS | MND = 4
C         3.43627618792063    4.00609500679693    3.81716691471436
C         2.50207532144251    4.20493047263838    2.79500483003820
H         2.88114443462858    4.27298804909186    1.78750461894788
C         1.12521357423866    4.32265007630944    2.96507726992357
C         4.88891343655823    3.90255600566984    3.41724177678112
H         5.49659825162292    3.75195693025550    4.30495874975278
H         5.20087226429980    4.81333482495821    2.91151578753938
H         5.02711783964871    3.06741449363838    2.73447833084732
C         0.28635020406430    4.53745089889988    1.72722170135939
H        -0.76287844845587    4.57901810944730    2.00519181384926
H         0.44548924098305    3.72490860306614    1.02264438718628
H         0.57032892731555    5.47006399037736    1.24523093249918
C         1.65771612491931    4.98579711617827    9.08848020716831
H         2.08264614224142    5.92581033780086    8.75328794907674
H         2.03042429539737    4.74137275521875   10.07626243403313
H         0.57498383621011    5.02612558728359    9.06074200498798
C         1.43101331577530    2.25637516042310    8.75152660421906
H         1.72074140282487    1.36759619781272    8.20114057804686
H         0.35603675677178    2.39177389601571    8.71901098750369
H         1.80191367105377    2.20057734783716    9.76825719023368
O         3.19245097121287    3.90230757193694    5.04974711250683
O         0.47622965390909    4.27170244307858    4.05533287613671
O         3.62731059763085    3.55516804325542    8.05686003190724
S         2.19023638102482    3.68981517327066    7.92913785485098
Cl       -0.66943036294284    4.07883872100683    6.87635142219429
Pt        1.33522597974790    3.99587218771669    5.87522563369263

