25
CSD_code = TUMHAL | q = 0 | S = 0 | Stoichiometry = C7H13ClO2PtS | MND = 4
C         0.77685660550775    2.09784444781329    7.91578176656171
C         1.69067176878827    3.08486884595481    7.55106336724856
H         1.45683662656048    3.67223132770271    6.67685747025656
C         2.88249914135505    3.38200240365584    8.21609604949300
C        -0.45081298737248    1.94586995677582    7.04342758021505
H        -0.15519864568984    1.71539020230581    6.02251767566142
H        -1.01441159186338    2.87586049128624    7.03381032170000
H        -1.08102082480480    1.14717536313095    7.42564524840548
C         3.73111592231696    4.49455555029940    7.64285781291983
H         3.17377107612917    5.42865440716365    7.65679529581803
H         3.99741648087566    4.26863118627717    6.61295989714533
H         4.63385628854763    4.60309536071591    8.23772693907822
C         0.34903966593032   -1.24854034983531   10.32537361298158
H         0.91627325329989   -1.50713859983448    9.43708456631835
H        -0.47277632721460   -0.59352339717648   10.05794436877719
H        -0.02738930644706   -2.14113439031667   10.81726220397087
C         2.72079489122667   -1.58151294779912   11.68833361060397
H         2.31091969664575   -2.44808172512230   12.19968463043070
H         3.50244021703002   -1.11659131393975   12.28293985501788
H         3.11351656490234   -1.85554146298507   10.71373777950212
O         0.86139950938452    1.30641711591097    8.89776202630916
O         3.34208267453835    2.82512000258367    9.25171934433271
S         1.40009514395401   -0.34497276908798   11.50754892316453
Cl        4.09807322595840    1.37143180983400   11.74507543764038
Pt        2.41015093044464    1.32598848469351   10.26759421645177

