69
CSD_code = TUMKUI | q = 1 | S = 0 | Stoichiometry = C31H33ClPRuS2(1+) | MND = 9
Ru        0.64381383312753   12.16267604325199    9.40887529163219
Cl        2.64745445096445   11.66627092954293   10.53899446437686
P         0.22676490631723   13.60661552908189   11.12491330371642
C         0.96022840422591   13.03895743715280   12.68816090523373
C         1.89653339972162   13.83225772996977   13.34409520941378
C         2.50863216426192   13.39537620216697   14.50424843265743
C         2.18236969956224   12.15523380759118   15.01963901553109
C         1.24596745647552   11.36254366827229   14.37850452969645
C         0.62650622636054   11.77762293523257   13.20626639987396
C        -0.45114087483719   10.91922176638588   12.59717130524183
S        -0.39739372376768   10.56391871498454   10.77811270637067
C         0.67310283189133    9.07502726130329   10.86449468401418
C         0.92456138826567    8.73544026964965   12.31859395584299
S        -0.54888564501866    9.23711728184099   13.25877139737550
C         0.91723346868520   15.24385123620052   10.79261762300108
C         2.25498728061699   15.28376173554410   10.39306859976284
C         2.84536014657414   16.49252993953383   10.07768724330657
C         2.10319583633844   17.66328438591320   10.14331360448172
C         0.77127888628837   17.62294276320403   10.52253036377284
C         0.17131767891879   16.41689785736926   10.84461425688223
C        -1.50110243701527   13.86411504537416   11.61953842598636
C        -1.77499613414323   14.59999736389513   12.77125503043183
C        -3.08585983268308   14.78938685092658   13.16745385655459
C        -4.12366280690293   14.24308131543781   12.42677735600444
C        -3.85264081733155   13.49810418294237   11.29045826234087
C        -2.54267798730091   13.30680156331547   10.88756045358254
C         1.06185208946448   11.01024386263666    7.42246377099896
C         1.88303349361804   12.15653677298741    7.45048592574099
C         1.33981535721307   13.44554784020114    7.61063745978395
C        -0.06117675869467   13.63131139213811    7.72080005308465
C        -0.89056830843413   12.48788285708172    7.69106989493003
C        -0.33276618717053   11.20279058544948    7.56791381031164
C         1.59535139410157    9.63547736936972    7.09501390376400
C         3.03702845518174    9.41654170867517    7.55377193504667
C         1.47708827887199    9.42832149688922    5.57888132845220
C        -0.65959706111221   15.00263647186833    7.72451936191497
H         2.14731225250751   14.80094000445840   12.93721012942389
H         3.23505950173359   14.02119943512099   14.99839967537280
H         2.65008504169569   11.79769090763634   15.92334837916188
H         0.98416746405588   10.40927201720304   14.81231585933823
H        -1.43030794877204   11.38565638736365   12.74014982961924
H         1.60079735457632    9.29029198901072   10.33496253791882
H         0.11056861375164    8.29045932462223   10.35852187567124
H         1.78386991227258    9.28429240364566   12.70484081906818
H         1.06682756041504    7.66748076502393   12.46707558367725
H         2.82205398158584   14.36113192658577   10.34635594619759
H         3.88252782776730   16.52505418745151    9.78023043797998
H         2.56365016135093   18.60704762847102    9.89501145985194
H         0.19425583771128   18.53393701171330   10.56683637349412
H        -0.86897716626322   16.38911000887862   11.13405238280505
H        -0.95894442442578   15.01246704112492   13.34925820945102
H        -3.29977695310427   15.36079414349924   14.05753914059770
H        -5.14488081604027   14.39234493951384   12.74095428983249
H        -4.66098534940194   13.06339106701413   10.72254002890694
H        -2.31352848892497   12.70804359901047   10.01399387740883
H         2.95148829963719   12.05375857819668    7.29966427867561
H         1.98850880910127   14.31380360704828    7.55095335910148
H        -1.96719347432126   12.61199309925077    7.67125371307327
H        -0.99483336193007   10.34473185650761    7.49109505655307
H         0.95327516601459    8.89651619973830    7.59077562514449
H         3.27491005991605    8.35691445791298    7.51794711784952
H         3.18661515812076    9.76842827116797    8.57302873630631
H         3.73743831615080    9.93470094053564    6.90319063227747
H         1.83537645395741    8.43707457455926    5.31568447938604
H         2.07644803590543   10.16382096551497    5.04637645906276
H         0.44410350843845    9.52070257637076    5.24994514254323
H        -1.01118513761384   15.23873340195029    6.71890630039409
H         0.07144956521917   15.75351039348511    8.01480360956630
H        -1.51258431368007   15.05958211698472    8.39900453318727

