89
CSD_code = TUMKOC | q = 0 | S = 0 | Stoichiometry = C42H38Cl2P2RuS4 | MND = 6
Ru        1.25545151291462    2.83226307639845    4.48004977042848
Cl        3.12216487672674    4.22913435760175    4.97479799744603
Cl       -0.62766342660824    1.41088419400110    4.01774460578468
P         1.75350027649944    1.41434742035420    6.26679155903692
C         0.23464722229957    1.10154754948159    7.22379073693843
C        -0.30192599263922   -0.17020399588059    7.37591199385638
C        -1.49783421582599   -0.34987709256909    8.04839199972284
C        -2.17560255378270    0.74040395232535    8.56397662329322
C        -1.65410609913583    2.01382688488335    8.41471502755213
C        -0.44981768417667    2.20569481000095    7.75750693486700
C         0.12655233797810    3.56350694880439    7.53916249744680
S        -0.21595959933199    4.08348224357556    5.81619258746775
C         0.39403752360315    5.75811005071044    6.17369088213402
C        -0.38461487686428    6.24306380687326    7.37438033015073
S        -0.52326289812137    4.88967647879983    8.60814477244132
C         2.94159240151001    1.85152973582451    7.58658385651224
C         2.62623808739528    1.75256963455856    8.93920895584172
C         3.57068268128003    2.07760603899142    9.89616480839065
C         4.83470889230816    2.49834987612178    9.51704533954288
C         5.15848732865887    2.58562148983685    8.17318671401747
C         4.21894981450049    2.26149541551356    7.21239190199981
C         2.34231097137412   -0.25570385619496    5.82164621809840
C         3.47809999107123   -0.82828494399223    6.38790817277885
C         3.90988620064879   -2.07561526970365    5.97012931078023
C         3.21774585563211   -2.76452231560138    4.98874826779210
C         2.08197088418772   -2.20409155029638    4.42644794228521
C         1.64692673750971   -0.95753602446498    4.83529977087194
P         0.57526311870914    4.11945741957922    2.65475761103081
C         0.20464193973134    3.01344778381691    1.25417290007046
C        -1.05701204645120    2.92302451394208    0.68113429894973
C        -1.30066439150774    2.01647167974572   -0.33546495688386
C        -0.28980154118202    1.18369096943809   -0.78115448010607
C         0.97119177388902    1.26166786921202   -0.21595207283263
C         1.23230109576235    2.17583323440106    0.79163210385552
C         2.56457425328050    2.26658712561666    1.45491040220927
S         2.48479547681740    1.40601077274123    3.07204008692517
C         4.28441194399077    1.56446210388001    3.27517002431464
C         4.90733634978475    0.98141397123688    2.02784548837845
S         3.95866277669088    1.51989929617182    0.55012547905778
C         1.61976757620619    5.38276975663246    1.84227537975305
C         1.71417525793391    5.47850225059010    0.45586433284176
C         2.48389671015618    6.47371158796600   -0.11805958672853
C         3.16019489956505    7.38272419710762    0.67938882999256
C         3.06104633588775    7.29844206478514    2.05810386008582
C         2.29229758589581    6.30607362087667    2.63844291537404
C        -0.96661443147478    5.06699630067654    2.89429392804477
C        -1.04881973552963    6.43509334737780    2.64923808431870
C        -2.22263978559251    7.11981673666525    2.91410820403561
C        -3.32312786316514    6.45258046252343    3.42435709978516
C        -3.24920581353157    5.09055438874586    3.66845427749995
C        -2.07951962383137    4.40083589458512    3.41103502112147
H         0.21713378014090   -1.02251598527930    6.96364812927961
H        -1.90202702701787   -1.34466526500358    8.16230193260651
H        -3.11436784143998    0.60431538880343    9.07921360965546
H        -2.17869981673709    2.86917585925495    8.81378892050335
H         1.21813032274067    3.56278057811399    7.64945813852710
H         1.46733024575042    5.69541447373941    6.36417096653379
H         0.20243963287095    6.37404119028834    5.29480599367661
H         0.10430193328292    7.08458046622946    7.86364701790944
H        -1.40182379880561    6.52177513330045    7.09671072160128
H         1.64294322231855    1.42392483509246    9.24650801914290
H         3.31487377150397    2.00247930212785   10.94295991780746
H         5.56621756330561    2.75674240995737   10.26843308667078
H         6.14295739229062    2.91103450965694    7.87101654875727
H         4.46715712160111    2.34143701205557    6.16454307380888
H         4.02854923249533   -0.30624747928881    7.15715427419984
H         4.79287743168321   -2.50948699261879    6.41710044580958
H         3.56159451662250   -3.73611046020517    4.66536994745339
H         1.53295409600936   -2.73687079492326    3.66424357174224
H         0.75943953912801   -0.52296457616389    4.39513326376783
H        -1.85203570567154    3.56312550810711    1.03324120587020
H        -2.28566979768598    1.95841428376407   -0.77409513214903
H        -0.48043569421027    0.46790392316283   -1.56637897079817
H         1.76442950627315    0.61430548629351   -0.55911161061830
H         2.83703974306000    3.30738695113495    1.67172715629328
H         4.52012553359882    2.62200860502295    3.41037341420550
H         4.56519156961621    0.99748017862754    4.16304479499556
H         5.93700182972816    1.31162684388308    1.89564490914982
H         4.87197936259448   -0.10851365173149    2.04359048458724
H         1.18865950777896    4.77448081516099   -0.17436429085044
H         2.55499187908351    6.53820890758151   -1.19401855453121
H         3.76332847008237    8.15525074477179    0.22553915622857
H         3.58550667134030    8.00404923904762    2.68536533504562
H         2.22904846812848    6.22904335767332    3.71362814778911
H        -0.19960283699885    6.97097989199315    2.25023230976695
H        -2.27422163194798    8.18146082638090    2.71955765585394
H        -4.23529801512489    6.99295335707449    3.63096997795033
H        -4.10338910311591    4.56210641579274    4.06510931482746
H        -2.02224918600023    3.33894244684083    3.60920830830044

