40
CSD_code = TUMLAO | q = 0 | S = 0 | Stoichiometry = C17H18N2O2Pd | MND = 4
Pd        1.83539325538114    1.37594429926090    6.73477394332746
O         0.60428943641316    2.55026748149917    5.43860422827063
O        -1.45047621755629    2.52615104186681    4.59712333000258
N         0.21885822457651    0.14008774024279    6.66656566202214
N         3.30938361758991    2.65636702079207    6.78639260268502
C        -0.49308400260306    2.00390790378838    5.13425853243308
C        -0.59334173399266    0.45000550041614    5.47287579569242
C        -2.03446933384113    0.05072939157489    5.82634284309596
C        -2.03536833970141   -0.11892345683375    7.35465336814592
C        -0.68108454345746    0.45859754682925    7.78619455151601
C         3.81740688047391    3.11674268312358    5.64582647537826
C         4.83712657435248    4.05198233240993    5.62429053954703
C         5.33954481765224    4.51760097229961    6.83060273332402
C         4.80233393913389    4.03211884418691    8.01172489036223
C         3.77601289834294    3.09907780938817    7.95931392447918
C         3.15399535220579    2.48804206672972    9.18408440858809
C         3.39773388652243    0.98644429285825    9.13367342409283
C         4.13671481732634    0.34651441103461   10.11416821335797
C         4.37076532803579   -1.01643461045891   10.02315736324423
C         3.88007647526816   -1.72735545186490    8.94407652073940
C         3.14222745598634   -1.08208768304675    7.96031412486194
C         2.88440085360379    0.28232647261414    8.03815260205022
H         0.39664006370019   -0.86870674534068    6.68943647825686
H        -0.20262602358392   -0.08451108047608    4.59902844355273
H        -2.69887248719230    0.85279039249607    5.50029666700988
H        -2.33833718993143   -0.86680215768554    5.32294416676443
H        -2.86584078253255    0.39879633369531    7.82864726589757
H        -2.09299790951448   -1.17498257961446    7.62617363978565
H        -0.75239258509666    1.55237346599901    7.87507929930066
H        -0.30132385280358    0.03820552324368    8.72268362422068
H         3.37963437452393    2.73042815314719    4.72820806774324
H         5.22652946557255    4.40859449204019    4.68451725315955
H         6.13432384796066    5.24740363946714    6.85084821869831
H         5.16870384543846    4.37609300868487    8.96640276031884
H         2.06639380495985    2.67583562419342    9.15559487245483
H         3.57000114992467    2.92545042641881   10.09148320048685
H         4.52611111073021    0.90569484696559   10.95411835762187
H         4.94116963527473   -1.51793751013632   10.79096887732929
H         4.07168996602129   -2.78807940644973    8.86423868045044
H         2.77985392483233   -1.66125303536572    7.11556004972268

