55
CSD_code = TUMLEU | q = 0 | S = 0 | Stoichiometry = C22H27I2N2ORh | MND = 6
Rh        3.13078044056009   12.11764987772681   19.82989027839764
I         5.32439461239660   10.96694948342980   18.84590821926659
I         0.84799194687019   13.18643983250250   20.69809592044673
C         2.91839372975599   13.02541699312293   18.24458144551416
O         2.75695099672915   13.54681374945352   17.24481376383601
C         4.26551283805786   13.75505572728551   20.53849440977866
H         4.54549122445778   14.45141123940896   19.74445090301255
H         5.18294265258858   13.37711055431948   20.99510647316745
H         3.70865691227025   14.30748526491570   21.29684548592325
N         2.07259616108705   10.25244802864063   19.34050856840673
N         3.28228783079661   11.02280373664050   21.51288542220372
C         2.10834052037678    9.39298793071991   20.29762342352698
C         2.75103921039991    9.84563241779758   21.53080619665993
C         1.53710311740866    8.01547284695072   20.21727321253418
H         0.95215574946643    7.89984570761915   19.30743290795660
H         0.90021500359745    7.82233227981102   21.07837226320067
H         2.33636026037957    7.27459440262733   20.21503377859797
C         2.78295466409703    8.94219208314115   22.71902165271878
H         3.35225102842919    9.38919210248070   23.53051000853506
H         3.23376154657795    7.98721850745872   22.45334785687394
H         1.76801495704108    8.75243261566483   23.06770802201461
C         1.62709261363927    9.97451971194381   18.04526418076478
C         0.63138656483729   10.76599927681933   17.47942740495633
H         0.14745971978289   11.52761256382553   18.07361650038479
C         0.24350594142896   10.56285625357985   16.16447666222573
C         0.87978791617594    9.57813761411772   15.41877703201038
H         0.59402620719685    9.42930542201451   14.38740288741885
C         1.88550389269167    8.79085278120506   15.96384809727670
C         2.24701750966799    8.98224862730828   17.28851920341376
H         3.05505701266848    8.40767950085842   17.71780176175492
C        -0.84436518178124   11.40522135461861   15.57465890677845
H        -0.65667400534286   12.45953233414224   15.76889972535653
H        -1.80242496157122   11.15144011810080   16.02804089368337
H        -0.91819700758321   11.25231681757505   14.50124207237563
C         2.59671176087274    7.76198074694402   15.14102745580684
H         2.74617273888040    6.84644287510190   15.70986130593264
H         3.57848634731314    8.13753150218972   14.85276492252361
H         2.03849974934069    7.53104925738796   14.23752122032318
C         3.96343686239307   11.51875351535541   22.65175077701493
C         5.31931676934246   11.24888896127383   22.80632915608962
H         5.83263049215789   10.64508610684426   22.07188172407451
C         6.00988800292504   11.77257325312581   23.88821880110421
C         5.32546311706350   12.55536268690062   24.80954608064336
H         5.86234812588659   12.96810993572180   25.65162421011119
C         3.97032041011879   12.82123337234084   24.67152128519766
C         3.28707933764915   12.29265219992281   23.58563610486692
H         2.23331929329388   12.49133620444216   23.45915036497177
C         7.47484763913276   11.51070368221350   24.05277354639188
H         7.70118131250872   11.22520925266379   25.07839415699683
H         8.04054726487179   12.41410051958127   23.82567114535019
H         7.80858284669739   10.72295306748938   23.38250783328208
C         3.25387839394183   13.68485822793704   25.66242237396099
H         3.63967622867651   13.52530987766128   26.66680619139867
H         2.18546683302402   13.48472134325409   25.65339930914211
H         3.40127484875948   14.73483565380111   25.40870649383760

