49
CSD_code = TUMNEW | q = 0 | S = 0 | Stoichiometry = C20H22N2NiO4 | MND = 4
C         6.43333823342411    0.94131004005160   -1.42997496815604
C         6.09328092403277    2.00372381341456   -2.34720584456438
C         5.16575323277469    1.79983277852226   -3.33596369081760
H         4.91075331746765    2.59339576751154   -4.02140842776982
C         4.52392331554752    0.55765295387054   -3.48269043422372
H         3.79881273414686    0.43523046577969   -4.27255176634248
C         4.81521471805024   -0.47121905513560   -2.63967508914574
H         4.32610229757492   -1.42858921225539   -2.74681831893606
C         5.76591094474864   -0.30691213279009   -1.60554568084319
C         6.04887743286771   -1.37609430581682   -0.72670695704870
H         5.47350930226101   -2.29221526553181   -0.87763913648202
C         7.01663491756380   -2.51431927345486    1.11016318198461
H         6.81322716384860   -3.44252599183227    0.56187932632367
H         6.27216390955520   -2.41369419083920    1.91086929724913
C         8.42090094533896   -2.52466420037804    1.71704917019067
H         8.44249522669372   -3.08432997301864    2.66036613522507
H         9.11982690000628   -2.99908763206024    1.01570962109355
C         9.72683117786734   -0.88430868451610    2.81717151170677
H        10.08925010932146   -1.71176033302326    3.43124921243292
C        10.29357320770843    0.38335602011183    3.07676828724720
C        11.24051703704839    0.53797666903683    4.11581940671422
H        11.50740930387723   -0.32623863934085    4.70673158590696
C        11.80277136876075    1.75273985641313    4.36549967734548
H        12.52507189472640    1.87377827180004    5.15812079870205
C        11.44975855373754    2.87175568784918    3.59107810626494
H        11.91469542815133    3.81922550767898    3.81635751696908
C        10.53806139604276    2.76713836010766    2.57259325018521
C         9.91524859414489    1.49910277915114    2.27285297321255
C         6.54254793265501    4.26602847135165   -2.95549758788106
H         5.48892346322306    4.57776759653165   -2.89625400803187
H         6.77017366316673    4.00917053053557   -4.00090851806899
C         7.45257637018105    5.38735033285492   -2.47808781113554
H         7.22874175173103    5.62420561783419   -1.44213301936926
H         7.31038547938515    6.27296535973271   -3.09138977879930
H         8.48865669229273    5.06740013133408   -2.53895541914458
C        10.65393394496047    5.06964544126769    1.95989501845378
H        11.74614594999316    5.05938891248848    1.82680401945471
H        10.43166200744311    5.42495219690616    2.97726157428767
C        10.00495742241769    5.98104337679364    0.92956550880271
H        10.22156598402190    5.61584788452429   -0.06998909523620
H        10.38168990366508    6.99478850869859    1.03476802949800
H         8.92773151363857    5.97894504807833    1.06777452054628
N         6.91745069586447   -1.35218095556305    0.23716808137551
N         8.83072038952889   -1.14059523180574    1.91421106277311
Ni        8.03108770954964    0.03887572679611    0.73420721664447
O         7.29700594147912    1.17363244358759   -0.51980270302283
O         9.07511589198328    1.44326616183620    1.31403082319441
O         6.77096988398420    3.15591544525344   -2.11897323360733
O        10.12654382154755    3.77772691965813    1.76750657484170

