55
CSD_code = TUMQEX | q = 0 | S = 0 | Stoichiometry = C17H34N2SiZn | MND = 4
Zn       -0.89576700141844    2.76591103948278    3.48895009840233
C        -2.40472086859931    3.25618337928630    2.13576668304922
C        -3.24345686313440    4.29236144995162    2.76459265431634
C        -3.75774847198644    4.12865708316111    4.05443436464708
C        -4.53366042880183    5.10267360547850    4.64869663389523
C        -4.82355050915473    6.27964122269873    3.97425512910909
C        -4.32776159856174    6.46087151291296    2.69397179733580
C        -3.55557418025571    5.48143442491239    2.09936967338554
Si       -3.41422268072026    1.73500195999236    1.62545332052318
C        -2.23058887484197    0.49271992810382    0.77678527828772
C        -4.25556851106830    0.84672780272214    3.08983248104646
C        -4.78090954634972    2.21447428012369    0.37375246896860
C        -0.53732044868389    1.41415577764257    4.99841786610316
N        -0.04153880806788    4.83640470302309    4.29323923279795
N         1.18405771920431    2.97955336618751    2.27865204363600
C        -0.29883567336148    4.90315564654998    5.72690995487373
C        -0.56730518595510    6.04387716163712    3.67040368916871
C         1.39247659911040    4.70521550260319    4.05009362314562
C         1.70916667780293    4.30162925989457    2.61108413351187
C         1.00279267956838    2.84719845539319    0.83930243162212
C         2.08879166126493    1.93452506323885    2.73741896766189
H        -1.98329397347525    3.67293079722986    1.21541164871947
H        -1.78031493609159    0.91492529128020   -0.11579383172357
H        -1.42952316576700    0.19750977006588    1.44859771323955
H        -2.75899944369726   -0.40684281905661    0.48022102689808
H        -5.02738992350807    1.46764723329304    3.53216618136831
H        -4.72390688296566   -0.07857764548665    2.76759528423777
H        -3.53831396973163    0.60060511693830    3.86648735680824
H        -5.42757220889421    2.97995425947111    0.79184810497548
H        -4.35846704149818    2.61046915736909   -0.54451282907376
H        -5.40239462098438    1.36441655503703    0.10917104647148
H        -3.52387962605866    3.22084503438858    4.59525470803741
H        -4.91418323649064    4.95080447555807    5.65012650543784
H        -5.42787130502737    7.04388893575641    4.44103205934859
H        -4.54992563093783    7.37153714875267    2.15390657411034
H        -3.17956254312586    5.63649476624453    1.09622268681784
H        -0.54581973452271    0.38788386542725    4.63687647834019
H         0.42117876682831    1.55298523438106    5.49407307964122
H        -1.29425139967866    1.46612290915569    5.77834701230534
H         0.19644816329322    5.76894123424108    6.18756402873645
H        -1.37157217763770    4.98388594617553    5.89026537436233
H         0.05476230667106    3.99461941588224    6.20836876965540
H        -0.02822655693740    6.93906221241023    4.01180188921265
H        -0.49312740404477    5.97789031851250    2.58888286023243
H        -1.61928323815678    6.14851600882651    3.92220186174123
H         1.77655868575091    3.93988319354373    4.72658635523617
H         1.91573423332738    5.64992917219585    4.27366958076867
H         1.26119234107476    5.02851018895509    1.93253408444486
H         2.80073284876637    4.33858090375503    2.46574186225359
H         1.95238572189716    2.95659666627252    0.29694069989731
H         0.58416435031194    1.86736242638156    0.62177221901533
H         0.30454696050507    3.60107927199959    0.48369702101351
H         3.06431071989822    1.99686723469077    2.23404270804782
H         2.24237970494810    2.01418263791238    3.80950569547331
H         1.64772852997040    0.96202045744583    2.53121165846306

