52
CSD_code = TUMQAT | q = 0 | S = 0 | Stoichiometry = C16H31ClN2SiZn | MND = 4
Zn        5.27909117935339    4.90716159118841    9.08017027201520
Cl        5.76244053134030    3.44293566086686   10.72911175593966
C         3.69078082969900    5.28044833414951    7.88028924643393
C         2.85454708196853    6.31666739361584    8.52848579345179
C         2.42095569943233    6.17735283034781    9.84794047128895
C         1.62930021153630    7.13726159118151   10.44638253893043
C         1.24959643851355    8.27038314129426    9.74288215627636
C         1.67015401765268    8.42547631069793    8.43340791115986
C         2.45774102236281    7.45925857109709    7.83437769725859
Si        2.68201054358012    3.71412447099560    7.45972686653685
C         1.23912420808790    4.20230429492630    6.30632055541703
C         1.98272354899623    2.84169799779978    9.00170250317201
C         3.86455766291306    2.52564590784297    6.54075083518450
N         6.05739588977944    6.76431205479007   10.15196201031014
N         7.37957902721214    5.05475818595100    8.08639362478141
C         5.65776691824066    6.74804313147059   11.55748659761752
C         5.66609898991436    8.04238057045324    9.56793272529560
C         7.50275121944793    6.55500188822751   10.05965957259886
C         7.96759781666112    6.28033565447846    8.63083079397004
C         7.31644647526694    5.12077121812295    6.63024447326322
C         8.17022406391022    3.89139521060597    8.47661652264354
H         4.05608009519805    5.68249018046060    6.93303429663239
H         2.72776416902391    5.30323453208337   10.40808098129057
H         1.30788091120496    7.00696734020582   11.47053272397828
H         0.63394991230396    9.02351733549314   10.21223814800829
H         1.38051825321422    9.30419250733350    7.87402762236309
H         2.77620209686400    7.59133799550671    6.80906467762379
H         1.59795237120648    4.61355279060112    5.36816425366900
H         0.61407612549665    3.34680931097377    6.07196607218241
H         0.61020387385509    4.95345767291040    6.77383230830209
H         2.76494185245533    2.64369723557038    9.72854046021722
H         1.22047983996484    3.44339316117092    9.48666675306647
H         1.53152308127669    1.88968072667475    8.73859331483261
H         4.69730068836492    2.24276881238852    7.17893484911612
H         3.35207731907420    1.61517573436954    6.24940125806626
H         4.27001374888798    2.97474094446407    5.63918318161234
H         6.18703613927227    7.51919808517367   12.13130716989041
H         4.58676764612778    6.92765778878722   11.62657927844626
H         5.87225330010135    5.77091457865530   11.98452353077321
H         6.19969342031680    8.87734295565287   10.04102098447224
H         5.86701698601980    8.05380617182808    8.49983171235309
H         4.59636422656470    8.18536714152710    9.70353181597956
H         7.74593761229734    5.69382916183113   10.68410705334404
H         8.04711754741099    7.43067894368592   10.44729947119792
H         7.67814486189793    7.11667013915908    7.99188980826145
H         9.06588692111585    6.22031452855291    8.62313183906426
H         8.31483183067672    5.23123771442744    6.18703783375209
H         6.86337722296638    4.20774318850985    6.24909564196854
H         6.69846356206606    5.96254542921689    6.32322179422975
H         9.19701058058847    3.96124160108493    8.09389994095754
H         8.19402354099321    3.80271483300877    9.55886657296752
H         7.70512688732372    2.99040544858966    8.08221972783964

