71
CSD_code = TUMWEE | q = 0 | S = 0 | Stoichiometry = C21H38B10SiZr | MND = 12
Zr        8.44930620614110    9.17845728724123   10.67252590901964
Si        8.81303182183785   12.72248477349659   10.21220633152894
C        10.03795700708616   10.06400393555103   13.26621097417686
C         9.30696550096570    8.73296876196473   12.68311581354551
C         9.96890261769374   11.23689597057620   12.33567506829021
C        10.85335605142510   12.40897845819777   12.70067587348856
H        11.02308580039079   12.43737265891400   13.77587341794644
H        10.37191705929443   13.33978061922904   12.40197068266489
C        12.20015375500125   12.29830800949128   11.97400642235395
H        12.73213723535891   11.41100995892782   12.32109387141110
H        12.00682639816798   12.17452389763785   10.90643450515107
C        13.08925981252553   13.52453300261943   12.18186909986288
H        13.95438052557355   13.44327571493971   11.51909523673871
H        12.53962137876358   14.42500381983375   11.89635279619302
C        13.58137999247254   13.66782874244396   13.61772836290098
H        14.27342473505880   14.50315085804320   13.69821373485860
H        14.09707726718898   12.76409332621061   13.93439319340243
H        12.75399468954585   13.84802895999778   14.29860189871274
C         9.15792985001744   11.19272700511805   11.25494777115934
C         7.95385116689309   14.11378993688591   11.22639215682998
H         8.66809716643045   14.77044602605690   11.71170441022982
H         7.31717624929386   13.69674030923994   12.00166708014285
H         7.33139171887813   14.73075946985919   10.58568883507823
C        10.24986296515330   13.55655972258752    9.24054157148185
H        10.91499570558606   14.10699585082270    9.89678251567913
H         9.85924874090274   14.26018007642215    8.51107378529059
H        10.85117675387982   12.82992112161344    8.70142657842058
C         7.52352250396230   12.24611819662262    8.86572705112521
H         6.51213520176640   12.27252192443573    9.25998339320119
H         7.70220959529320   11.25870958554346    8.44193920893126
H         7.55794372592802   12.95972640455397    8.04780982966169
C        10.69831894072993    9.13397689303370    9.43886280448527
H        11.58067541137975    9.67060151082445    9.76174138909517
C         9.77953340092334    9.59450360427819    8.47472894350159
H         9.86207560896860   10.52650387997531    7.93239433636818
C         8.88413746657394    8.54626797600651    8.18987455818421
H         8.14700395129293    8.54786668201502    7.39631138770488
C         9.23796865500057    7.43832225002648    8.98764608629410
H         8.83072171825969    6.43690862830362    8.91001570537875
C        10.36310460008982    7.79876992773800    9.75899954649969
H        10.95947495119776    7.11692431123118   10.35098788782206
C         6.21323127075240    8.79883246003849   11.78419154892914
H         6.02946361192798    8.85871500974816   12.84621729118240
C         6.04219340156047    9.85413171517827   10.86114256959331
H         5.72849600408882   10.86071494639307   11.11233474600412
C         6.11877486291900    9.30054388175471    9.56083138328774
H         5.86374845804637    9.80819826378806    8.63978382471496
C         6.34668008281184    7.91992491429656    9.68800368972113
H         6.32675477686433    7.20189265284577    8.87935366370453
C         6.44185590772586    7.60946030956675   11.05697945482881
H         6.50563449650423    6.61277604763988   11.47748702702640
B        11.04245699541125    8.74637206854779   12.88614537060175
H        11.72024016152000    8.84862864281680   11.93216830509886
B        11.35558240867261    9.69357442501002   14.33000592186135
H        12.29455987565867   10.39823937995922   14.35702409872709
B         9.82549904908979   10.23995194246531   14.97897329983035
H         9.72110658874929   11.32456152889840   15.42212777199401
B         8.53459702451273    9.62897414317390   13.95873342032071
H         7.62800168705759   10.32517018177354   13.65461064056394
B        10.08944403939758    7.34007779287144   13.31939961390261
H        10.11134788370700    6.37656356865506   12.63223540756102
B        11.40363777863709    7.91415112146023   14.38884112567112
H        12.41173768959890    7.32116948517070   14.51943124854233
B        10.64488007009952    8.84438775987151   15.71130436414763
H        11.12982900518212    8.90712453824104   16.78177843147034
B         8.87981715950794    8.81430969199280   15.47673315922226
H         8.11434962332600    8.85048716795871   16.36964084436714
B         8.56484412534281    7.87598659827861   13.99834183042480
H         7.58886374685990    7.25330936308938   13.77487892835549
B         9.86190617504944    7.36942869658555   15.09183026147481
H         9.78313213655337    6.37820165340252   15.72138073205748

