68
CSD_code = TUMXEF | q = 0 | S = 0 | Stoichiometry = C23H33B10NZr | MND = 12
Zr        7.20950896869696    5.55134655915339    3.20995375977046
N         4.60624863173097    3.16118808895947   -0.68221038955529
C         4.43282581746556    4.25985389625727    2.30445046941453
C         4.99315948821590    5.42239039840897    3.30230857558723
C         5.52655464616867    3.56886099497635    1.55213421333410
C         5.11538344834112    2.52846927098668    0.52988988176870
H         5.97572888736659    1.87538998154360    0.29857122188666
H         4.31151093313991    1.91068970043304    0.93650311819299
C         5.63398808092936    3.90238208314391   -1.37793238220613
H         6.04518246777645    4.65577252886447   -0.70596223413686
H         5.18899763873417    4.40547927657529   -2.23516280552038
H         6.45730519408505    3.25930099052708   -1.73136284715955
C         3.97064028285151    2.19642516699843   -1.55128300301304
H         3.15082830795677    1.71813759931354   -1.01737215518282
H         4.66522517274048    1.41693306493579   -1.90508447051129
H         3.56261047683403    2.71528778370335   -2.41762578347499
C         6.80457105334044    3.93443174181134    1.77137066907659
C         7.94869049749117    3.20833709354567    1.20821713567055
C         8.20747142546784    1.89009961207747    1.61395208104947
H         7.51442010787105    1.40551320374438    2.28964080088089
C         9.32554290810525    1.21270973552429    1.17008082577537
H         9.50416093389322    0.19947650623351    1.50070487030288
C        10.21495302421239    1.82334161555780    0.29970270831205
H        11.08853645423132    1.29281336866868   -0.04776640589269
C         9.96661779751517    3.11757214087267   -0.12777406520540
H        10.64592498178024    3.59506294546781   -0.81982023236648
C         8.85406173787412    3.80468039438426    0.32092089621041
H         8.66402975405845    4.80546838596365   -0.04700364512806
C         7.63306255308197    7.05364216282737    1.25747912645888
H         7.43711008332214    6.78445687482755    0.22572852028801
C         8.87664865525533    6.95130432835095    1.93169832734094
H         9.79709329526551    6.55354725700971    1.51704536285160
C         8.76013860195320    7.64771243624956    3.15008326316913
H         9.57125912037695    7.88683810655577    3.82359603242022
C         7.44473524618512    8.13391363483721    3.26329145573635
H         7.07614505151852    8.79441290193968    4.03915851935751
C         6.75889398719415    7.80055787148995    2.07715436683537
H         5.79655659805221    8.18946577424792    1.78121742945580
C         7.84630282498228    3.58033969119842    4.66971178116639
H         7.41785240368614    2.59123365499528    4.57714309031936
C         9.08490409128957    3.98678428216345    4.12918783762156
H         9.75188560599161    3.37031557200551    3.53937155007964
C         9.38868648282556    5.25423900626518    4.65119738513562
H        10.33773959267555    5.75918062193004    4.53224400482204
C         8.32616776859469    5.66004458653630    5.48477572455402
H         8.31573444127273    6.53596139725413    6.12430977308302
C         7.37125014672849    4.61715351054990    5.50713003952389
H         6.52920738971735    4.54602180012214    6.18415158784101
B         4.09627034921752    5.87013235371585    1.87520150712032
H         4.70882411793892    6.29162267933654    0.96066004290987
B         2.87215437968791    4.62628810414626    1.65771811107192
H         2.61695754117257    4.27182619638753    0.57173789259780
B         3.04800901300332    3.45354977290434    2.94838133839177
H         2.90680054389460    2.30559847836199    2.73464699927943
B         4.36848877444968    3.95191887183907    3.98977087497797
H         5.14430323807905    3.17245409997667    4.41082414056012
B         3.81542941879139    6.68085861412351    3.40883830271872
H         4.20999476484313    7.78078229932246    3.58475000963116
B         2.44515172382219    6.20128887484760    2.37611102498439
H         1.78511935114379    6.99133820967214    1.80681692505514
B         1.78028120898439    4.69007736978504    3.05477593113142
H         0.64081064180579    4.41369952598010    2.95541957377864
B         2.72282823274049    4.26312491539556    4.50791257278417
H         2.25985185587819    3.69035579612268    5.42553076047521
B         3.98675576171541    5.50753386847447    4.70105932723242
H         4.50592599967193    5.84107088265119    5.71187244448826
B         2.36167341161488    5.97296927790236    4.14641017664889
H         1.63941661271575    6.61087020910247    4.82194605823504

