101
CSD_code = TUMXUV | q = 0 | S = 0 | Stoichiometry = C38H59N2OV | MND = 4
V         1.31533100474764    6.21233203505642    8.48391033207400
N         1.50969248142911    6.24724533430976    6.72036984313325
C         2.41682620037682    7.28129687034816    6.58880853925407
C         2.32069648533512    8.40567507366804    7.51402725739304
H         3.04838878622084    9.18778742041908    7.31859627163213
C         1.38677216726236    8.66460374397987    8.47092730896253
N         0.45225754608274    7.76297324815979    8.84852158389919
C         1.30436819737977    5.42313737689269    5.61072063718917
C         0.57718661758458    5.89864964426797    4.50317831524779
C         0.46387192122737    5.10943389452869    3.36882175084244
H        -0.06897029614637    5.48303966247588    2.50781700456001
C         1.03507140712166    3.85402817930233    3.31227012257641
H         0.95011073411101    3.25568158856122    2.41687941806600
C         1.71628495934414    3.36860105792245    4.41141203765177
H         2.15891508950816    2.38543043199753    4.36197007238491
C         1.85705299332466    4.12761305588357    5.56344669810618
C         2.65202719220239    3.57852859033921    6.72768605502926
H         2.33060519307871    4.13228421412594    7.62303977113811
C         2.38475149716450    2.09237425925379    6.97787763285796
H         2.86876375543560    1.47124148549964    6.22749655679939
H         1.31736680119802    1.88988675370547    6.95800086818036
H         2.77436086927726    1.80170947079383    7.95245625322143
C         4.14921027495671    3.80043903220726    6.48420685455947
H         4.36945835092383    4.85837869783216    6.35793024486943
H         4.46184802240123    3.28224155179717    5.57885752187121
H         4.73825531493828    3.41500295500313    7.31625964034708
C        -0.07147013770657    7.26319563572295    4.53608533359427
H        -0.09395973146009    7.59400686602655    5.58154099090178
C         0.73902002309669    8.26858202721615    3.71328912496889
H         0.77282240578789    7.96356391161586    2.66910984288033
H         1.75873200997367    8.33024188505244    4.08731204738405
H         0.28607438103369    9.25671758878119    3.77149450081901
C        -1.51177269548943    7.21300560168984    4.02422466246980
H        -2.08217580217065    6.45998350235869    4.56217761928308
H        -1.54549171254027    6.98072159116805    2.96283845072921
H        -1.98592665935340    8.18173217703476    4.16478045388336
C         3.39426226110187    7.28572106673419    5.65112165789375
H         3.47497364989701    6.50774451961432    4.91065663392715
H         4.09504025318812    8.10143638581494    5.57873102886794
C         1.40447791352078   10.00781356805080    9.16653570673080
H         0.54848467776574   10.60085953847219    8.84307324613808
H         2.31283345257929   10.56091740153171    8.93429389816275
H         1.32412737154668    9.88683470430598   10.24808598545972
C        -0.59006258019909    8.12343655653004    9.70559676562028
C        -0.51336373184219    7.82010690874224   11.07775983766268
C        -1.56260771105053    8.17421343102097   11.91314161361879
H        -1.50764148887327    7.94399411040628   12.96716621602863
C        -2.67830942783763    8.82437475558339   11.42431487855126
H        -3.48494275344131    9.09641520530387   12.08909123943605
C        -2.75467280307382    9.12180392829882   10.07820758260810
H        -3.63164980301740    9.62362766123714    9.69772694654833
C        -1.72651965080377    8.78643508454762    9.20996348094696
C        -1.87459836365099    9.08422711498230    7.73610744443647
H        -0.92456769634708    8.86614502586271    7.23734794027569
C        -2.94048733253832    8.15746848923550    7.14646335859963
H        -3.15263661111900    8.42983815065446    6.11625141411398
H        -3.86430946493384    8.22377494735161    7.71687180154176
H        -2.58462844703417    7.13001967218947    7.17219372476414
C        -2.23173703876832   10.54914813235915    7.47298831759699
H        -1.54289221610746   11.21862135080887    7.98506882192194
H        -3.23946746070840   10.77572209716213    7.81224680933325
H        -2.18002131001648   10.75725763872919    6.40614376386259
C         0.69328414376518    7.12547727918263   11.66915119393605
H         1.42993578987482    6.97134141944755   10.87037618509449
C         1.33875466719838    7.96710652678397   12.77409086723265
H         2.26411999729252    7.50365053414152   13.11449569602419
H         0.67536933793292    8.05997878386213   13.63051270942725
H         1.57089099084468    8.97013317249400   12.41906252143077
C         0.29965413492847    5.74353855866814   12.19632976772781
H         0.03498774662184    5.11307434395405   11.34893177542321
H        -0.54822022638511    5.81329111131957   12.87358927457064
H         1.12685737932505    5.28557617579160   12.73560995097043
C         0.09674482753068    5.05147781499578    8.71616337990251
C        -1.06607667227296    4.15101942406519    8.70567123098028
C        -0.73811515098640    2.80932558736062    9.38145755682222
H        -0.51883416003825    2.95664839943242   10.43741852429828
H         0.12831240427474    2.35467946453762    8.90773138394749
H        -1.58366954726541    2.12928455594860    9.29698484659239
C        -1.44167323559305    3.90802795795210    7.23282036633871
H        -0.62497705818357    3.41396646291371    6.71285145592419
H        -1.61615253886084    4.86436571562161    6.74495716943403
H        -2.33796134515832    3.29441987582636    7.16049804071727
C        -2.25496047032643    4.81349850830056    9.42470560540058
H        -2.39946539124538    5.81958063180522    9.04051289933357
H        -2.06942829500994    4.88614201401290   10.49282290591247
H        -3.16262185104246    4.23354985910314    9.26770414816785
O         3.06446047774348    5.49033880076535    9.64263858530868
C         3.27738689141872    4.26628972395163   10.32473961689728
H         2.27761004474631    3.82963838537136   10.41514582047617
H         3.90136399547390    3.60258242195213    9.70667072883677
C         3.91449328201145    4.41991941640798   11.70361384703442
H         3.35552513703802    5.13679160214434   12.30019795421876
H         4.94919561503965    4.74906134005731   11.63144543610788
H         3.89904126979569    3.45969463955408   12.21196951649580
C         4.23940582005718    6.20569475202307    9.27798741584447
H         5.10706000323365    5.53430667110364    9.29614296686779
H         4.10787350665513    6.55238718269362    8.24441837893012
C         4.48527640730292    7.41782847844832   10.17364466335312
H         3.63252194435283    8.09465424549284   10.13552926458171
H         5.36255265385956    7.95538916046636    9.82093698663651
H         4.64813813813114    7.12504514154672   11.20857762940577

