35
CSD_code = TUMXAA | q = 0 | S = 0 | Stoichiometry = C15H14S3Se2Ti | MND = 12
Se        1.99901825160576    7.77016126707772   12.57403396723869
Se       -1.13443913669795    7.62737547713039   11.29179937814224
Ti        0.35398297089679    5.87239827450749   12.33140603179438
S         2.74265157822893    9.41124705593118    9.97576280890789
S         0.03375511044910    9.31092742397344    8.87593106787451
S         2.17162475606667   10.73220898029557    7.37304222482354
C         1.54471903038504    8.54740232729833   10.91611461962042
C         0.29021440777968    8.50206512292721   10.40756531800679
C         1.67890585652934    9.87147001586956    8.66529410215499
C        -0.15070290420230    4.44138254793129   10.53691492646362
C         0.70937883138248    5.44795076274183   10.02361549446405
C         1.95538204959537    5.33970788251013   10.66832849257474
C         1.87379377878913    4.27780739361783   11.59851379874117
C         0.59174604292446    3.69446738816498   11.47316223100955
C        -1.54106679183726    4.16101865247091   10.05901569601657
H        -2.16645210125002    5.05644471601508   10.12833258880423
H        -2.00038626392140    3.36333934896214   10.64050808844503
H        -1.52107275187090    3.85559684660952    9.01225393507995
C         0.68261288139474    5.73649352459223   14.66134411275250
C         0.25244911000064    4.46912432495981   14.21332460345153
C        -1.05678938819079    4.59649085478652   13.69429293810974
C        -1.44840538219501    5.94235201457345   13.83357459713772
C        -0.37479834045743    6.64889824441442   14.42217947858915
C         1.95736399836484    6.02516173048436   15.39007980195891
H         2.77223346350543    5.40090056729509   15.01958835862550
H         1.82811113351894    5.82024556895694   16.45468466796384
H         2.24020994530702    7.07570555017217   15.28165407453224
H         0.48051945989502    6.08684127462454    9.17885732617214
H         2.85541402764522    5.88931480860681   10.41636066091175
H         2.70481753711845    3.88211658538807   12.17167763484094
H         0.26778797494488    2.77179071233380   11.93665818553556
H         0.79035024413705    3.54176571371058   14.36681574685029
H        -1.70369839774645    3.78548271143791   13.38351447634683
H        -2.43488389967527    6.34563292197425   13.62758623671851
H        -0.39014708241853    7.69101140765467   14.71961232933940

