51
CSD_code = TUMYUX | q = 0 | S = 0 | Stoichiometry = C26H18AgClO5 | MND = 6
Cl       -1.33555496401254    3.84368528313730    3.90695124441568
O        -0.87550000730399    3.27869447293175    2.67128671591855
O        -0.64189206793184    3.20503439476575    4.98033326418161
O        -2.71913164674526    3.69621766449017    4.04007407295242
O        -0.96396330445563    5.22875811006779    3.89279769284542
O         0.87727663075528    5.26023577822249    1.65441677707578
C         3.57693047067074    2.65283040363735    3.56910105405107
C         2.68894679017434    2.42594156183290    2.53228438784058
C         1.59444646803951    1.55778561284889    2.71806677292999
C         1.43850491131119    0.91440495409626    3.92135980509147
C         2.35591289512018    1.10050760809672    4.97340293193383
C         2.28191841326329    0.29674126655085    6.14336095453590
C         3.30767324348111    0.28192469927283    7.02804739335313
C         4.41783461011391    1.15575404226415    6.87928090443791
C         5.55849351012850    1.01017069525514    7.70538621377387
C         6.67606907146279    1.74571826920450    7.46699145919154
C         6.64403679990581    2.82115188619426    6.54781953835734
C         7.80441409693131    3.58660551885377    6.27955420270563
C         7.76332878175640    4.61834858247188    5.39594351721994
C         6.52004436698990    5.08913917858704    4.90884226379761
C         6.45150086360029    6.24749243041944    4.09012559921005
C         5.25796600110774    6.77965824096896    3.72920527882541
C         4.05117324771735    6.27953480019772    4.28776599052041
C         2.83561094076019    6.96861920666804    4.11674121975910
C         1.70690818109162    6.59916886080041    4.80640188144107
C         1.76532016882700    5.51929785799538    5.71248354367859
C         2.93124667039650    4.78385292735530    5.83494958933476
C         4.08889406394914    5.12224533930977    5.10394511897305
C         5.33368935011823    4.42178343720310    5.26877075957001
C         5.43481153421211    3.13521841274567    5.88685555904353
C         4.40102161902122    2.14355035785587    5.87543749919583
C         3.42850572778205    2.01696585441016    4.82072243863872
Ag        1.31648897939036    4.05328437568198    3.80962894738978
H         0.93388823493912    5.33492459989196    6.38223863729867
H         2.99477455496905    4.01604384359346    6.59393550495586
H         4.46741614929149    3.23233816235821    3.37529377823414
H         2.89887964830282    2.82713408674075    1.54841920281144
H         0.92240472245654    1.35418189692723    1.89725964819627
H         0.63599006724620    0.20515646572378    4.05842108384388
H         1.42560265465384   -0.34756689459799    6.27090755587220
H         3.30732748066862   -0.40000725295397    7.86589274769531
H         5.54778092227811    0.24751027911454    8.46995856100846
H         7.59473064083065    1.55050104550715    8.00027448594676
H         8.72934658839113    3.30326977400449    6.75989741847973
H         8.66269764298090    5.14503785236129    5.11298368372621
H         7.37885618771294    6.69023103098537    3.75697194604763
H         5.20635322050504    7.63597052189438    3.07363389094220
H         2.82510557110625    7.83974512698068    3.47769054188596
H         0.79518362909259    7.17409119421178    4.72758286860303
H         0.27118400260490    4.57305931633007    1.34662322954567
H         0.30005166434900    5.94305686654429    2.01538062271234

