87
CSD_code = TUMZIM | q = 0 | S = 0 | Stoichiometry = C32H46N4O2PdS2 | MND = 4
Pd        8.15159720186425    7.98618584475574   11.38655379692292
O         6.34263396457904    8.94097442983072   11.04519740388215
C         3.99873282668470    9.11071866632628   11.00039180316285
N         5.12364188573512    7.36534035421946    9.86947150329672
S         7.42607284936195    6.03590528569510   10.47220573828010
O         8.78358132919955    9.84228745530027   12.05927091485364
C         2.77978377581510    8.69303654914445   10.47420493817906
H         2.76406374032335    7.85425266906475    9.79806928724195
S        10.11228503020710    6.98666858923080   11.95301731766388
N         5.74088687471310    5.68677130942149    8.48254510346059
C         1.61596932263504    9.35400603117949   10.81732908724530
H         0.67079571777659    9.02865977750537   10.40697001210645
N        10.85154197839333    9.39552346414259   12.99584877092840
C         1.65819632092290   10.43503066617013   11.68421637996638
H         0.74644881505157   10.95078236502153   11.94878515108500
N        11.72074599898678    7.54120038525982   13.95932758820126
C         2.86940644898873   10.85449888664403   12.21081038738529
H         2.90183303093642   11.69646334595859   12.88684125483977
C         4.03623354481023   10.19607937098933   11.87239335320374
H         4.98906919719699   10.50774939126077   12.27443830438856
C         5.26868589574230    8.42312489507530   10.65225455191631
C         6.01549799941326    6.44847571532966    9.55585112881579
C         4.53951421201513    5.95492155182724    7.71769521911556
H         4.39055668171141    7.03725305568353    7.69654162527525
H         4.69830790597565    5.60260733247390    6.69583162050457
C         3.29545892530019    5.29395146341351    8.31707410946537
H         3.38262769367064    4.20834474235119    8.24944042204890
H         3.24172216991502    5.56200441642100    9.37318901942927
C         2.02366389937867    5.74518694479074    7.60338741766058
H         1.96029742102101    6.83527838924502    7.63192874918338
H         2.07041945591649    5.44556047510380    6.55370927304289
C         0.77789568180744    5.14984265290805    8.24793204686417
H         0.81134726802340    4.06310054425130    8.21419735362105
H        -0.11769008526460    5.48142798786154    7.72796259216027
H         0.70519798051084    5.45701422515587    9.28884175993148
C         6.55903123686300    4.54984927117922    8.13034310042171
H         6.40601389358913    4.33761776013986    7.06961971067299
H         7.60848379888121    4.82093659666380    8.28409797139189
C         6.25199316635895    3.30103193035337    8.96211855636954
H         5.23322663409383    2.96433843709156    8.76280900438840
H         6.32381488375179    3.55980719755458   10.01896063710855
C         7.23260171595469    2.17426340390729    8.65061579461333
H         7.17432965855221    1.92302524481486    7.58866896761986
H         8.24724362456229    2.51907788568651    8.85739082461003
C         6.94061898833591    0.93284067337045    9.48407763543845
H         7.01540277071948    1.16378268573681   10.54391574612731
H         7.64988118218944    0.14161322824230    9.25354326455209
H         5.93712432385711    0.56320860258929    9.28380058056111
C        10.31791094133121   11.60127271717409   12.33195899863673
C         9.46258378289533   12.48209215919355   11.67439708085643
H         8.54505421148336   12.09881886431097   11.25255374664127
C         9.79221046441294   13.81985141735929   11.56842503203735
H         9.12655196182306   14.50057186733268   11.05803971510473
C        10.97612322097035   14.28816436190132   12.11551421222506
H        11.23296037734213   15.33431617113709   12.03260356925047
C        11.83092442051989   13.41479227316769   12.77003139000241
H        12.75313040315850   13.78181450014263   13.19713555056694
C        11.50560596138818   12.07645214706465   12.88030438631082
H        12.15711332047333   11.38634851168995   13.39048588390055
C         9.93750908494094   10.16863702910243   12.43061405650115
C        10.89622540647209    8.08000369589537   13.04434950396497
C        11.97946460127107    6.12071410513001   14.00278849815086
H        11.03992408464219    5.59706573285311   13.80074746874175
H        12.31109591771003    5.87267718871172   15.01242501844501
C        13.02038633732698    5.67031650357804   12.97074750655788
H        14.01699545785029    5.98295908352105   13.28773104568442
H        12.79359123789101    6.16256448444607   12.02415720236569
C        13.00505368399432    4.15883241860440   12.75269656832285
H        12.00402223640187    3.85643913737842   12.44056952895594
H        13.69178784189107    3.92126883525799   11.93755873325767
C        13.41623711205494    3.37177033241925   13.99168187037669
H        14.39240324165866    3.69798411844163   14.34499962874559
H        13.47491046278368    2.31073370601220   13.76094205974129
H        12.69582475526469    3.50261730673953   14.79476896439527
C        12.46093586631570    8.41819045453225   14.84407127124832
H        11.81058352959469    9.25544237718285   15.10880973044785
H        12.70424199008864    7.86188890029452   15.75228931499581
C        13.73865191244828    8.96375942683526   14.20113824333048
H        13.47377295282389    9.41294955214683   13.24296783509182
H        14.43437056675150    8.14586106816412   14.00755554568031
C        14.41303426873745   10.00432569225070   15.09142387848529
H        13.70106751026480   10.80034655392752   15.32085009437815
H        14.70365952876644    9.54017977216665   16.03691658384941
C        15.64214563258769   10.60417748531721   14.41969885794167
H        16.37357631213836    9.83001947499628   14.19847447936388
H        16.10974790961306   11.34279082878304   15.06639426067029
H        15.36582265488460   11.08946759833663   13.48629590584614

