29
CSD_code = TUNDEL | q = 1 | S = 0 | Stoichiometry = C9H12IO3S3W(1+) | MND = 7
W         1.88161067020069    9.11805881330278    2.73122602137446
I         1.36199408401241    7.95291330993205    0.22750619722242
C        -0.08232380376899    8.94086095397106    3.07741691389404
O        -1.19670998415156    8.87212765903845    3.26829837394399
C         1.29513710907382   10.97405836738600    3.11577135643082
O         0.86452719199546   12.00278406402346    3.40973908259287
C         2.00382070097699   10.68608838138494    1.49336350715479
O         2.20552176758161   11.51118713630065    0.72292005671222
S         2.64041317098024    9.39044241106305    5.15626013449028
C         4.48592568648636    9.34475790681413    5.13147126826330
C         5.05253687878249    9.81129613385446    3.80806394865501
S         4.37141664177627    8.97963862633977    2.32667096361778
C         4.85360608911689    7.22566637602187    2.63333864324745
C         3.71304661774463    6.24260148507994    2.47140400794566
S         2.15544189096202    6.68103570161331    3.32451699335160
C         2.66927616515837    6.56543720648545    5.09183295279120
C         2.21677097253506    7.76776939826136    5.88960594977004
H         4.80640957948236    8.33748911588188    5.39184176868468
H         4.80998754854820   10.02460145622085    5.92088989951786
H         4.82939217918720   10.86727003082036    3.63910329370593
H         6.13582613656720    9.67754427622853    3.78788049758521
H         5.30760598671241    7.18018114897140    3.62228179408482
H         5.62087878055075    6.99562384133061    1.89198393128125
H         3.42251440201330    6.15073489535434    1.42243085892400
H         4.00369826091665    5.25558915888900    2.83528924960886
H         3.74900822160253    6.42634135135881    5.12346729830090
H         2.19611351605676    5.66734308519209    5.49312901971689
H         1.12724101909011    7.80025142428969    5.96449824474423
H         2.63611251979370    7.74970628459363    6.89729777238531

