49
CSD_code = TUNDIP | q = 0 | S = 0 | Stoichiometry = C23H18I2NO3PW | MND = 7
W         1.30679856520155    2.63034141240903    2.61851549149175
I        -0.40870318209687    1.73330312184820    4.67854491174408
I         2.88924626081808    0.36915335612909    3.07017165279341
P         3.40102349187503    3.41179668076532    1.45733601631919
N         2.42392580366499    3.46322269601552    4.21970436321401
O         0.28507472217466    4.14784693984933    0.04288909966986
O        -0.42053973368429    5.27830860226252    2.68253349013201
O        -0.60212307539898    1.14552582512804    0.59155726708213
C         0.63373594699579    3.64910990559185    1.05824974767495
C         0.18212694927267    4.27406078228868    2.60440629402001
C         0.12434483554440    1.62855858791694    1.35028703611374
C         2.92686786186289    3.50099062751859    5.25780989225392
C         3.55089839333582    3.50727265079063    6.53458913751260
C         3.90043823318589    2.52747053835357   -0.04712965002591
C         3.02812178528216    1.61896831984859   -0.63422254889515
C         3.39331578058364    0.95366877296051   -1.79137476666372
C         4.62922698415210    1.19510901864925   -2.36671342837605
C         5.50251882625037    2.10257422205547   -1.78612344133561
C         5.14473454223483    2.76839236002942   -0.62961696357731
C         4.96510859302804    3.48718065434265    2.40496993139853
C         5.79790332785527    2.36997683781063    2.44408092765581
C         6.92495891237702    2.37139241476321    3.24465858708738
C         7.23410753152574    3.48151838230700    4.01312134643811
C         6.41603735757770    4.59866563525682    3.96963804301650
C         5.28399330077470    4.60321869165736    3.17442225200914
C         3.17711012111331    5.13907792031655    0.90764188854817
C         3.44371896171006    5.56896191034017   -0.38625583388268
C         3.17075490875219    6.87663754379545   -0.74984524465761
C         2.63373163338970    7.76168186203483    0.16839907012766
C         2.36251058825360    7.33902121087181    1.46026260154778
C         2.62436880898657    6.03302266145889    1.82556506750048
H         2.99000820385099    4.13874904032198    7.22416698146447
H         4.57755424639360    3.86507818082281    6.44947845039759
H         3.55566856532094    2.48302832669993    6.91375264425832
H         2.06107863511236    1.42501718881628   -0.18144553204627
H         2.71371603060563    0.24479253602209   -2.23872916614046
H         4.91573884529635    0.67363698089839   -3.26724246957537
H         6.46651150285164    2.29021579857168   -2.23509971515764
H         5.82649353834821    3.47234155039787   -0.17047201674992
H         5.56686627010345    1.49811693012285    1.84998264155183
H         7.55827819664061    1.49836880946777    3.27014377925890
H         8.11268729750653    3.47939578705130    4.64048660022591
H         6.65905895490145    5.47343377152625    4.55585193674562
H         4.66001780079668    5.48529457787943    3.14204309141492
H         3.84677769763586    4.88181029399498   -1.11590039434633
H         3.36923860181004    7.19942818014471   -1.76083584490644
H         2.41296732490263    8.77707466356842   -0.12332580090848
H         1.92926954558682    8.02051190484769    2.17689894510121
H         2.38363170573193    5.70087533344342    2.83217363144791

