77
CSD_code = TUNHER | q = 0 | S = 0 | Stoichiometry = C38H28F3N3NiO4 | MND = 4
C         7.19161090363226    1.46681718853606   -5.21113513659912
H         6.43980829991377    0.78469336534162   -5.58119164047897
C         7.55452056938740    2.56850315139674   -5.96890032799353
H         7.08771834553638    2.73564621759261   -6.92783521426140
C         8.50184422288018    3.45846235180087   -5.49458476326446
H         8.77117625700411    4.32422781723567   -6.08098682946352
C         9.10576205916151    3.23763039946151   -4.26718830789176
H         9.85414824859505    3.92538780298791   -3.90182149669450
C         8.75225289015137    2.13434500169254   -3.50783715192801
H         9.26511303779379    1.93193318439140   -2.56779060193109
C         7.78063490479294    1.24546085795398   -3.97526986912916
C         7.36691806715801    0.09920469348009   -3.08952186129127
H         6.82763387137458   -0.66380964867996   -3.66758775746574
H         8.26595230622683   -0.34955254812864   -2.65832372952114
C         6.58118956517260   -0.39384992663164   -0.85283457016346
H         5.59039094885543   -0.54843360266914   -0.41871830863960
H         6.95627422363835   -1.37270826189683   -1.16733730324062
C         7.45309310601507    0.17989084773645    0.27442078998289
C         5.15023189164560    0.83229089866891   -2.41879107518905
H         4.77343675841618    0.05219046857121   -3.09414379702374
H         4.48973107329491    0.88152572875351   -1.54737891710921
C         5.02407764066627    2.20019762311059   -3.10496903110166
C         8.59705034633242    2.07551646094074    0.99002181010280
C         9.96633312003091    2.26757846983537    1.14167437430569
H        10.63882177267560    1.81995191495307    0.42558552939988
C        10.45139042671473    3.02434354508685    2.19161168575035
H        11.51629978693972    3.17429115611926    2.29573295219628
C         9.58197992030246    3.59043516781212    3.11365656631164
H         9.96826460134476    4.18177335917482    3.93002732723778
C         8.21953058673952    3.39713435209415    2.98721633810519
H         7.53790796674449    3.85326085994845    3.69108035736204
C         7.71335353743864    2.64774765125702    1.92948663419792
C         6.26251941438162    2.49441102682002    1.72420046507959
C         5.44190279519769    2.29053937030451    2.94645183927516
C         5.92555172986007    1.50438409744093    3.98950203624022
H         6.89922096380752    1.04722689380061    3.90595267920613
C         5.13773324133892    1.27261291308594    5.10179452448910
H         5.50085320635963    0.65692433586790    5.91005189490320
C         3.87256542261935    1.84116117135521    5.17571524581348
C         3.37656396877645    2.61620105723628    4.13326635875407
H         2.38700257474398    3.04176651520563    4.20289681911469
C         4.15976106468374    2.82990194458755    3.01607177188795
H         3.79246450639117    3.42091503555063    2.19090501355250
C         2.99521769506521    1.59157121881146    6.37047335605183
C         6.06659026536585    4.34776628379578   -3.17634678125569
C         5.56848066851844    4.68426581248194   -4.45039434892455
H         5.05529970218584    3.92943657510263   -5.02058454392983
C         5.71784010080810    5.94392314153420   -4.97289158024329
H         5.32597388606215    6.15904368830227   -5.95598204298672
C         6.38043192274145    6.94120141120820   -4.25910239414740
H         6.51154762266803    7.92371267074233   -4.68603190996161
C         6.87678383943519    6.65247237543406   -3.01367662657111
H         7.42847681503930    7.40286186928003   -2.46691570250232
C         6.73520847230177    5.37434249777424   -2.44788862457950
C         7.35253406914001    5.10161446027000   -1.16866489467383
C         7.54369417297498    6.20077440782792   -0.19382132388468
C         8.64707222655705    6.15438494676371    0.65765180855871
H         9.36039417260114    5.35204356656027    0.54305525488993
C         8.82147812965167    7.12474552619547    1.62486122091674
H         9.68340084689443    7.08760758240362    2.27385567697801
C         7.88847749281852    8.14016568664099    1.76466641420086
H         8.02275069684700    8.89805915388204    2.52199496273617
C         6.77567024891783    8.17692861150638    0.93946105243847
H         6.03978558367602    8.95821300986683    1.05953350581922
C         6.59883636075357    7.21349037603203   -0.03668970948204
H         5.71944393162529    7.22844985179079   -0.66264832844701
N         8.06764732332810    1.32525344904700   -0.06370673219598
N         6.51774435207713    0.56235728200860   -1.97037975024100
N         5.92700580050951    3.09805297300250   -2.63514608637005
O         7.54308651240196   -0.38045191817341    1.35819603907077
O         4.13056206293032    2.39260994944776   -3.90961837051507
O         7.76936282380008    3.98011672023353   -0.82624359826696
O         5.72829127103234    2.52065700785160    0.62253862214427
F         3.67239628376860    1.16550930998446    7.44525040658575
F         2.32727112873128    2.69357282704250    6.75450753267057
F         2.05601404645961    0.65787512775480    6.12118615363357
Ni        7.08203932756071    2.31684163842621   -1.35027398042243

