61
CSD_code = TUNJOB | q = 1 | S = 0 | Stoichiometry = C18H32BN8ORu(1+) | MND = 6
Ru        7.69526184421420    2.82894185897063    3.14491325860060
N         7.14414608663087    2.10561555058783    0.34068818532445
N         7.13014167349061    1.61904800722827    1.58345916113320
C         6.60034362651579    0.40136739589699    1.52683646014675
C         6.27944183310290    0.08558964889251    0.20768963650615
C         6.64302120566293    1.20207308892223   -0.51355684183765
N         6.61186196442189    4.42726365475664    0.92666370928196
N         6.54176129024896    4.25974756949170    2.24863336137611
C         5.62029542906466    5.09943600073338    2.70826281948503
C         5.08506408303824    5.83774342672814    1.65446228327418
C         5.74814604924659    5.37556710187365    0.53768493517155
N         8.95454611526275    3.76107483289833    0.63271068281454
N         9.25710521552395    3.55851154443577    1.92055648381068
C        10.53123656574470    3.92440659980606    2.07038853111191
C        11.05899613259747    4.36090000078707    0.85998770379110
C        10.01400685267904    4.23936363744927   -0.02927604658063
B         7.54634309913292    3.55744574285804    0.07346510804180
C         8.26885953684658    0.00714463562968    4.42071157514142
C        10.19510198497079    0.98785679239704    3.50658189931556
N         8.93446617801816    1.29490643164275    4.19192181650163
C         9.20540568165466    1.88957673787290    5.51357981858267
C         9.43552399300650    3.39569216745400    5.44048657876193
N         8.27562492628211    4.09292284518571    4.86197380364120
C         8.66514247232587    5.45992270301239    4.49804608132513
C         7.23828211499237    4.20425517535235    5.89360895653681
O         6.07690783964034    2.11474367440263    4.26297155218551
C         4.07550778583618    2.11326544830719    2.90182923729836
C         4.11071245062576    1.31352233121470    5.30846332504174
C         4.87831861179856    1.88083999828226    4.14529586966706
H         6.43649043568371   -0.19454474092781    2.40320504151848
H         5.84780177539574   -0.82216836222541   -0.15802127759423
H         6.57553086393270    1.40344647233864   -1.56234389814317
H         5.34961096415577    5.13924008071998    3.74643769596831
H         4.32961378357459    6.59322303868722    1.70522704553111
H         5.65691916213778    5.65972868547262   -0.48999822243732
H        11.05578286297385    3.88853454805985    3.00547533628548
H        12.05166097176012    4.71113382220277    0.67156097813953
H         9.96431969970871    4.46172969715126   -1.07473509452409
H         7.48015663789499    3.83072554232109   -1.06996073528187
H         7.26024396765961    0.16197028025861    4.80075000150448
H         8.83022356218115   -0.59270817349028    5.14705572438013
H         8.22519770812829   -0.55121428321409    3.48905465179467
H         9.98644375842022    0.67582241424304    2.48337047515236
H        10.72708610702389    0.17794915143844    4.02026205603579
H        10.84752693096025    1.85332146827345    3.47591029042968
H        10.08189529567799    1.41291299618481    5.97448670459938
H         8.34394434815077    1.69045516171981    6.15581507001538
H         9.64578173400021    3.77365905730159    6.45194416467062
H        10.31086200012611    3.60320098273140    4.82574938866859
H         7.80034578198472    5.99602856071180    4.11045285676630
H         9.43308669494467    5.45093211868654    3.72787908863607
H         9.04769933668388    6.00202144813233    5.37085067122724
H         6.89499661674830    3.22177739789181    6.20935664328663
H         6.38476368633585    4.75493889884529    5.50586582404257
H         7.62187145869844    4.74228739889468    6.76909869469940
H         4.69976786956220    2.48279090756383    2.09264097529914
H         3.28606676043018    2.83595863032135    3.10204539708184
H         3.59631756768107    1.18694242689361    2.59063223578998
H         4.75220781933066    1.19052619456300    6.17770952528393
H         3.68618371921264    0.34827379272119    5.03908703894315
H         3.28262747626443    1.97065978245839    5.56569570677924

