64
CSD_code = TUNKUJ | q = 0 | S = 0 | Stoichiometry = C22H28BCuF6N6 | MND = 4
Cu        5.45658856285254    3.19450100391803    8.62273449879057
N         5.81920056330192    5.07659266596102   11.00251797092480
N         5.60823225469508    3.81423780785538   10.68686713126394
N         6.77587724174376    5.88239360671747    8.85462548724957
N         6.76408230344150    4.75562652618271    8.16777436998558
N         7.15152927525034    0.71677351107854    8.40639324848689
N         2.60949829720999    4.07310612586294    8.73699587388170
B         5.73634871861307    6.20725798161749    9.95120343633253
C         5.70032670587347    3.09700599465008   11.80833430623427
C         5.98019467910679    3.93727390211436   12.88841601082559
H         6.10632652010263    3.65985234953716   13.91391759928496
C         6.04737779196875    5.19301282360669   12.31394801908256
H         6.23816548965062    6.14544592291441   12.76345968752479
C         5.51210213729661    1.62737653321289   11.83093510985820
C         7.75922993416465    4.81622287839982    7.27943615595374
C         8.43362451684483    6.03250583115811    7.40346549017556
H         9.26975404025543    6.37438918268596    6.83023816957782
C         7.76232388506013    6.67434605433140    8.42648033630263
H         7.93183924569093    7.63736934852958    8.86178417814664
C         8.08809195988483    3.71945398903365    6.33679049755880
C         6.46731690442726    1.64915965524798    8.44383732733019
C         7.88887100136265   -0.46247696476788    8.29964128205640
H         8.81697437391581   -0.31060836630644    8.86469688688366
C         7.08649268300797   -1.61890917860657    8.91057370098698
H         7.72355989231384   -2.50506626426056    8.92004509954883
H         6.82673621390890   -1.37251999389368    9.94108371072124
C         5.82426234987794   -1.89314181656457    8.09803690441791
H         5.16450241437514   -1.02397194210539    8.14893557907530
H         5.29261959848869   -2.74187357727436    8.53169688516142
C         6.17441866512854   -2.18392071858675    6.64138574305394
H         5.26194790507645   -2.36712463951101    6.07184579586479
H         6.78977352114689   -3.08566410646297    6.58786399781183
C         6.93753779487435   -1.01091879776488    6.03263859923252
H         7.19663520381308   -1.23067335437391    4.99564971220599
H         6.30544846181012   -0.12002423799323    6.03706882061846
C         8.21177499850641   -0.73248243437208    6.82424129374459
H         8.87631405493550   -1.59721055661429    6.77658551689265
H         8.73760982917579    0.12665275711125    6.40603489046143
C         3.68423090053911    3.73493556765891    8.46212520823707
C         1.34997316509013    4.46728864234338    9.19629080611322
H         0.88722796713607    5.06678859767622    8.40102750663815
C         0.49354528896577    3.22521460451814    9.47873034717591
H        -0.51480014428738    3.56015072831469    9.73046811295504
H         0.43442859411787    2.61026128209978    8.57829637839248
C         1.07310888044831    2.41246110191304   10.63333087133275
H         2.05856974786416    2.03274737331449   10.35588743800410
H         0.42762954111216    1.55525385918239   10.83195491369828
C         1.19759655220060    3.27450252162760   11.88604649617891
H         1.62674709362036    2.68396096109324   12.69660055675265
H         0.20637041854628    3.60969101057031   12.20209074832130
C         2.08284716288017    4.48516650518285   11.60714559184234
H         2.16824788255551    5.10593802778217   12.50066793586647
H         3.08430718898111    4.14549063721732   11.33887022989444
C         1.51532180896225    5.31918671034732   10.46273991629489
H         0.53483664966907    5.71303362895481   10.73744187765072
H         2.17910488267872    6.16015089622625   10.25251949864238
F         5.26560053966256    1.17339143093906   13.07242438505283
F         4.48837399896462    1.19996218370212   11.06965415144759
F         6.59394757544119    0.93688992074861   11.40294309664528
F         7.02312308857661    3.11239091740193    5.79032397743066
F         8.81535563013192    2.72811266357100    6.90919251157931
F         8.83734487919005    4.15697363696532    5.30953682790051
H         4.64914981517667    6.19564047570900    9.46040151149173
H         6.02920090269938    7.23364661311424   10.46950978102148

