91
CSD_code = TUNNOH | q = 1 | S = 0 | Stoichiometry = C46H38AgN6(1+) | MND = 2
Ag       11.17593057478590    1.68392666651384    8.95617140593156
N        14.02990128498902    2.26740802334651    7.80287224094138
N        12.77518971793086    1.42582562538415    6.25286322755299
N        17.65707591968839    4.27492349087985    9.70963261659074
C        12.82175852625408    1.71947600917849    7.56878244231371
C        14.77085020255439    2.32231063305983    6.64290040312748
C        16.04928852796393    2.78930440428409    6.37041358822682
H        16.67921386301720    3.20458178851477    7.14068999399517
C        16.47797447634938    2.70502140250828    5.06147179124766
H        17.46408206787934    3.05848467408205    4.80604648966242
C        15.66518267486297    2.17689681847582    4.05658990389162
H        16.04227654788652    2.13534047652859    3.04706849090501
C        14.39338770647769    1.71063424853040    4.32013569025501
H        13.77446597527103    1.31209340668890    3.53205882290372
C        13.95219803190557    1.78658692919784    5.63446518116803
C        14.50769621694153    2.68582149928364    9.09634536861016
H        13.63395246076959    2.84683000061330    9.74258754472122
H        15.04473468982790    3.63215070711478    8.99189522077379
C        15.39473518272489    1.63564208528393    9.71871221082007
C        14.91076400838017    0.35326104342614    9.92364111235060
H        13.88950052078884    0.12592250245674    9.63629148001529
C        15.70984236101622   -0.62332440623154   10.49138729867370
H        15.32099008280978   -1.61902965327840   10.63973227095544
C        17.00962171705893   -0.32558645505158   10.87325026363371
H        17.63097443863195   -1.08649334326953   11.31909560132121
C        17.51131281785680    0.94671917923050   10.68248655770149
H        18.52096651958796    1.19323444937226   10.97426984991720
C        16.70803514661528    1.92822250574852   10.10017907781374
C        17.23702560535666    3.22455274968972    9.89469174155768
C        11.63077257104904    0.83379714319236    5.61052091003117
H        11.38140675816221   -0.09675850741947    6.13572023420316
H        11.90967881444950    0.57051571931251    4.58635322854184
C        10.41181617868643    1.73249990706635    5.58255310341145
C        10.50623501326907    3.09046717842362    5.86814091645708
H        11.46507329894868    3.53482747772689    6.09731420367830
C         9.38884515002888    3.90771886916618    5.80397107692275
H         9.48202016738684    4.96152551965994    6.01660927476421
C         8.16392110658070    3.37110636047643    5.44973970062683
H         7.28971750175959    4.00130947433595    5.39493049565904
C         8.06804905431057    2.02384257047701    5.15065809450138
H         7.11523606007460    1.60952881373696    4.85571205522800
C         9.17755302161392    1.19040082627086    5.20631021862156
C         9.04568335224232   -0.25580072962319    4.84147346612282
H         9.34039591404082   -0.89996186115880    5.66936747200579
H         9.68060490988723   -0.49712225202217    3.98983967797483
H         8.01780468006022   -0.48732316857052    4.57746131851466
N         8.32198936533467    2.26735318240185   10.10958930458392
N         9.57680166162291    1.42580025527554   11.65953345419700
N         4.69396809626582    4.27441065546247    8.20318709925219
C         9.53014329491068    1.71941485393446   10.34361025953143
C         7.58112804319016    2.32231086980637   11.26961930728233
C         6.30271654700954    2.78932747962785   11.54220302768263
H         5.67269913179830    3.20451562864247   10.77195343336793
C         5.87418003751820    2.70519169715705   12.85120518143102
H         4.88810346481927    3.05868758866126   13.10670609991489
C         6.68708850360448    2.17719251616499   13.85605858425947
H         6.31013205650458    2.13580249481635   14.86563843661888
C         7.95883456701769    1.71085635700033   13.59240984194034
H         8.57785020184572    1.31240904698206   14.38046054410405
C         8.39986034947302    1.78663352756032   12.27801516808643
C         7.84418775843378    2.68588060705641    8.81615076786374
H         8.71792522172254    2.84710055446804    8.16994976405544
H         7.30700837378613    3.63211585180603    8.92073000013533
C         6.95729154662417    1.63568196268780    8.19361916427114
C         7.44139555927583    0.35339521618684    7.98844570552004
H         8.46269414909980    0.12612970030223    8.27573181897659
C         6.64239408572391   -0.62318662368087    7.42058987521931
H         7.03136445730725   -1.61880727389989    7.27202072159401
C         5.34254501309259   -0.32553426102591    7.03887527585500
H         4.72124099427151   -1.08645076938132    6.59297832428776
C         4.84073420727488    0.94669539599181    7.22984990081929
H         3.83104729946288    1.19315869421346    6.93812133600458
C         5.64395978597330    1.92819454350129    7.81225460858489
C         5.11520554931787    3.22465303427744    8.01752526602118
C        10.72124003596730    0.83375375432732   12.30182073144382
H        10.97059738386529   -0.09678004183513   11.77657917711752
H        10.44236005197900    0.57042868960771   13.32598464265478
C        11.94018350489454    1.73247172543523   12.32979178264994
C        11.84573477072465    3.09043531347814   12.04419627704978
H        10.88688722550718    3.53477087817490   11.81501342516759
C        12.96310373041785    3.90771446704442   12.10836708541557
H        12.86990260643165    4.96151679705301   11.89571987921114
C        14.18803836715840    3.37113052644795   12.46260604189633
H        15.06222603392941    4.00135490045683   12.51742076340745
C        14.28394121752691    2.02386879576919   12.76168774031027
H        15.23676243657563    1.60957730865124   13.05663799824860
C        13.17445756315601    1.19039954172634   12.70603614395591
C        13.30636436855916   -0.25579619491362   13.07088392329064
H        13.01167097165965   -0.89997522761384   12.24299726012381
H        12.67145000993627   -0.49712485454665   13.92252173261695
H        14.33424898069883   -0.48728996786721   13.33489978914074

