77
CSD_code = TUNNAR | q = 0 | S = 0 | Stoichiometry = C27H47NSiZr | MND = 8
Zr        5.72211795513744   10.03278130230335   13.32615902073733
Si        8.92552295701100   10.58037942629476   12.48808042886231
N         7.54953120010007    9.56033296528087   12.45064519513059
C         4.89679003023379   11.95157281098454   11.86527131913644
C         3.80248269164691   11.05393068411770   12.03727647394908
C         3.41150425465634   11.09332152182440   13.40205251750605
C         4.25717760040651   12.00795729010723   14.07500088833591
C         5.18406747437676   12.53194567510512   13.13386861519064
C         5.41616601967754   12.41885929252590   10.52767566931382
C         3.00751682308297   10.41283046450647   10.92988221351398
C         2.20623096181184   10.42736863863726   14.00704780123108
C         4.02100274549853   12.53190915252450   15.46589903768006
C         6.11634604820320   13.68151646397940   13.42161015762969
C         7.62819289288280    8.20761189732317   12.07786237622103
C         7.14753264822952    7.80332836913704   10.81369630722144
C         7.28999481546412    6.48884406153597   10.40046377634397
C         7.87523384817550    5.54378124866016   11.22128246130799
C         8.29654878386176    5.91729240076482   12.48183759667599
C         8.18024444005234    7.22568414988062   12.92804446577888
C         6.52094708638712    8.83385401813523    9.90090452450021
C         5.34628704908611    8.28394663916783    9.09032818096042
C         7.59303142859078    9.38544403601712    8.95548841634014
C         8.59168139531227    7.55106078229150   14.34526084953443
C         7.68539491962765    6.80234395421009   15.33054661634548
C        10.05789052260116    7.21020141714418   14.62070079522943
C         9.11764025345507   11.31164100540537   14.26098648418372
C         8.80887940846855   12.13658234130480   11.36227678125402
C        10.53507587825388    9.69762503841407   11.93476473982930
C         4.66135909883338    8.06813990779306   13.17656755330387
C         6.05320644493281    9.95577759329192   15.54096778830269
H         4.63056070323677   12.33555711159840    9.77659381152693
H         6.28288811075534   11.85619986077986   10.17704115158977
H         5.70215271361560   13.46972064375730   10.57995716161741
H         2.61672301748638    9.43889888083330   11.22520975070126
H         3.60792421283939   10.28297127018724   10.03263473499194
H         2.15097345839267   11.04331365474826   10.67346867279861
H         1.85567161310827    9.60642541557787   13.38425072431695
H         1.38693344294256   11.14383807481602   14.10715848569100
H         2.42774189052322   10.03685880337299   15.00217077339133
H         3.68325233575347   11.74303328748564   16.13703332990648
H         3.24206464236906   13.29950295569528   15.44411050777146
H         4.91941320051902   12.98312508231620   15.88430128094105
H         5.61418022276021   14.41443938911267   14.05497448323086
H         6.40377821410692   14.18978471307755   12.50202630633359
H         7.03035267850931   13.36631765949545   13.93269491344575
H         6.94698126550191    6.19159874811553    9.42147112162192
H         7.99031320248015    4.52405045106232   10.88519507527434
H         8.72981133328567    5.17202304895934   13.13262468121065
H         6.15017882907330    9.65017250418708   10.54978036825181
H         4.86012879152690    9.08999937661837    8.54338420508712
H         4.61712620059549    7.80998859998522    9.74361275333822
H         5.68116206132380    7.55288648368353    8.35867644393919
H         8.43981968915528    9.75700412164450    9.52603045549787
H         7.19396669263589   10.19148117461504    8.34147173624580
H         7.94771534878903    8.59501405076638    8.29664907829027
H         8.44877835286409    8.62636149393720   14.49330780491524
H         6.64334218097649    7.07788713246572   15.16657730481767
H         7.95758650749337    7.04967656028916   16.35520975579918
H         7.78600223438102    5.72669583698516   15.20439756657515
H        10.70843075242420    7.71649062747758   13.91442771955929
H        10.23187719150009    6.13983485812518   14.54039427442896
H        10.33040802169034    7.52174248812287   15.62735801746056
H         8.13710548515732   11.47337690352701   14.71443901991960
H         9.63935336565551   12.26340337781544   14.23501880598257
H         9.68098249150914   10.65710551229218   14.91922702817429
H         7.96571477504560   12.76372215564074   11.62432951685545
H         8.73603467743764   11.89916336877257   10.30588172809503
H         9.70633878241147   12.73421532883961   11.49161143801311
H        10.33870321514599    8.65317991028841   11.71406619049126
H        11.30545146695899    9.74105021343585   12.69724154898249
H        10.94368100010142   10.15010746284356   11.03696981704264
H         4.15840081164488    7.96902344619460   12.20198864944628
H         3.88673340222150    7.95772162686483   13.95200324713928
H         5.32280610680361    7.19525378299775   13.26447854325104
H         6.90275012905884    9.35805049482330   15.88895974973945
H         5.15732860583527    9.52650263044651   16.02249842331018
H         6.19147889634526   10.95706487664277   15.97574279146582

