152
CSD_code = TUNPUP | q = 0 | S = 0 | Stoichiometry = C62H81CrO5P3 | MND = 6
P         4.60978204049770    3.54755162452059   25.76213855334964
C         4.12325748328076    4.73483661834040   24.68040489187656
P         4.53843441222671    7.51330281000214   25.20090248599993
C         4.14638294566632    6.12244688736986   24.33421319706948
P         3.14716249915263    4.36696321528868   21.98729074805959
C         3.65253190054119    5.14142164364388   23.39986696126695
Cr        3.95218539713127    1.26823175989397   25.30564505570804
C         3.40986205921087   -0.43597363510209   24.85804207351490
O         3.06631550160885   -1.50135912335651   24.58838857193039
C         2.85643941690695    1.01535788369889   26.80344206288636
O         2.12266349233828    0.68355569083114   27.62308247693646
C         2.53554742378659    2.00801637657936   24.34244763415082
O         1.69824730261341    2.44358113860068   23.68816064730750
C         4.88786876628823    1.32319966345466   23.68650068311035
O         5.33937032661958    1.27148227113572   22.63215451179639
C         5.37619707365873    0.48074354557414   26.23581251257332
O         6.17881101654147   -0.13817655274400   26.77654086287779
C         5.38922686692782    4.67065127955187   26.96386667328940
C         4.66878106540143    5.32207263152221   27.99832265393540
C         5.39061217781832    6.39947900270679   28.42656284976451
C         6.39017709009383    7.31393799733894   28.42495698842361
C         6.78695714067315    6.34830441462034   27.56021864378026
C         6.66986118613245    5.24915664748552   26.75903302341613
C         3.39213298232556    4.85373194497941   28.65659180330120
C         2.22716518563265    4.77400837140746   27.66702962198788
H         1.29785947045092    4.58735604126155   28.20174248147991
H         2.37080252077890    3.96385173361293   26.95004428980009
H         2.13093856088316    5.70907554451692   27.12099393869265
C         3.65177463228728    3.46697400391627   29.25801082188934
H         2.74450541361515    3.07184139489422   29.70980741366543
H         4.42502012170534    3.52319899184929   30.02188502418562
H         3.98428516610846    2.77201614712139   28.48479521036241
C         3.02064263938734    5.83561971687533   29.77236841321273
H         2.13392566384637    5.48945450454094   30.29849676245201
H         2.81782825470551    6.81948506189310   29.35624988820796
H         3.83434022964259    5.92700716739724   30.48792274844630
C         6.77542483082174    8.64914940713708   28.93121377263407
C         5.68425677815449    9.16486684575281   29.86934798765435
H         5.95352769297152   10.14491787566428   30.25612732084415
H         5.55068846197644    8.48517407574232   30.70786256553747
H         4.73815687813286    9.24686144466876   29.34028056432787
C         6.93227665702068    9.57858819589650   27.72146489291447
H         7.71892751774739    9.21431915446431   27.06473893419584
H         7.18897512907316   10.58261305629927   28.05165162438661
H         6.00554503900047    9.62299714912693   27.15219570026104
C         8.11165853902705    8.52498173774295   29.67220628025663
H         8.87343376495415    8.11404165845227   29.01341917418376
H         8.01111322475408    7.86912923593708   30.53454888267390
H         8.43913743327021    9.50294748287567   30.01737010719369
C         7.79858826168627    4.72381884997227   25.90096109828524
C         7.52542551195769    4.95902074693595   24.41268417622244
H         8.39800934786972    4.68557697525186   23.82326284353056
H         7.29821703283510    6.00737090265103   24.23082512943515
H         6.68471226211189    4.35606675770202   24.07399007399072
C         7.97827116618837    3.22476820879531   26.15908490234706
H         8.82648495911343    2.84427743194359   25.59365014830832
H         7.08965388194553    2.66905930803529   25.85198308347258
H         8.15346013033789    3.03751636474498   27.21670261976365
C         9.08686657017732    5.45998664896012   26.28608529934847
H         9.92593732575813    5.07772020091403   25.70910325593877
H         9.30296414189884    5.32431017154453   27.34342505535521
H         8.98644848181288    6.52472440527347   26.08878775355899
C         3.94439359450008    8.93670568903469   24.21862713396112
C         4.60211491039231    9.54218346898416   23.11727677854426
C         3.84209684382190   10.57849014401615   22.64973210047326
C         2.80981024037521   11.45614169325859   22.60424597484930
C         2.55989482319794   10.65348097498237   23.66798586468869
C         2.76378244022576    9.64915939609980   24.57168966356909
C         5.97404261279931    9.22468419401018   22.56973208085207
C         6.35055564091770   10.27852241777000   21.52338029975093
H         7.34156310410828   10.07352527021224   21.12365458879900
H         6.35142802053944   11.27371919725195   21.96226603396021
H         5.63555308530604   10.26570286749466   20.70380505921496
C         5.98675328469219    7.84712812461723   21.90854230667033
H         6.97443559835705    7.63539100337755   21.50216065147644
H         5.26365644958354    7.81193446253109   21.09854274597894
H         5.73189336969800    7.07269128730772   22.62720203429726
C         6.99787867656551    9.26596835273935   23.70959907988218
H         7.99693988933651    9.06485302079332   23.32754337966502
H         6.76131243537785    8.51554500083672   24.46509266122704
H         6.99662557959414   10.24396128953675   24.18750031735461
C         1.87766935414384    9.46121591990259   25.78471206010213
C         1.18007868925190    8.09965437139462   25.76464465841773
H         0.46490653771850    8.04975256970096   24.94899538953919
H         0.65008289277584    7.93502949520658   26.70090890508155
H         1.90878313894772    7.30204926822983   25.63020847064395
C         2.72615250446088    9.58206983991930   27.05661607266942
H         3.27995638630242   10.51954399366043   27.05585661447311
H         3.43408718356683    8.75601841423113   27.12324419419480
H         2.08646091716336    9.55747960601447   27.93722149910952
C         0.81122091073651   10.56181898613180   25.79691778537718
H         0.20829731330420   10.51652518407544   24.89290485100521
H         1.27552113527782   11.54389733607725   25.85240417576609
H         0.15607816460077   10.43777934312243   26.65642850558395
C         2.24304895841701   12.58255799370649   21.82934366708536
C         1.22447161725095   12.01444566877736   20.83236199639236
H         0.43678157859390   11.47797179061678   21.35705014135844
H         1.71098279390990   11.32904032856055   20.14205557834394
H         0.77411131489501   12.82164110753878   20.25923320963308
C         1.54603199599885   13.54029425806350   22.79936899247828
H         0.76649126072361   13.01896294976716   23.34997809662142
H         1.09635162284624   14.36599470747415   22.25300234597830
H         2.25922341750757   13.94504927889797   23.51454212090077
C         3.37306715793787   13.29387567933669   21.08274410176296
H         3.89026063849750   12.59926688528292   20.42509815785477
H         4.09631670203045   13.70212330080604   21.78549428773699
H         2.97299644013646   14.10849990983871   20.48380391788908
C         3.34133028524341    5.61449272897353   20.67023784159211
C         4.45871414097499    5.58169523213176   19.79122858230882
C         4.39714765114532    6.65790180760617   18.95171808719438
C         3.91173184088686    7.80741890192694   18.42330930066949
C         2.99291492249334    7.42501409115646   19.34342216476182
C         2.45325296513454    6.66985068176262   20.34689140044889
C         5.51680869450147    4.50826404990408   19.65396155366059
C         6.48969161297508    4.91583457828122   18.54181354081254
H         6.98455485461468    5.85101754496509   18.79434453810289
H         5.96020662658232    5.04905165342314   17.60098780794376
H         7.24717403200001    4.14711103164657   18.40642602702187
C         4.83079973143947    3.19363309015015   19.26320298651517
H         5.57189401507205    2.41153367896468   19.11363790941223
H         4.26335905427069    3.31854069696845   18.34276863412417
H         4.14826254428537    2.87059215935996   20.04829865793372
C         6.31177487492490    4.30100186830675   20.94469283675903
H         6.78119762033092    5.22796023002005   21.26260079667489
H         7.08595100193982    3.55324227602025   20.78585573818036
H         5.66364333845497    3.94628192767574   21.74477298214584
C         4.23258428039436    8.88057642724600   17.45557686161511
C         5.75316576816957    9.04351184625283   17.38993916057500
H         6.01821904784581    9.81315235120403   16.66867805429701
H         6.21937847169597    8.10777492712329   17.09053265406939
H         6.14930659687933    9.32698920319800   18.36272821560031
C         3.56456539609663   10.17614200769689   17.92131958577628
H         3.79281589733123   10.98799476066248   17.23456639653683
H         3.92004075473594   10.44849734402689   18.91365715749866
H         2.48510253880424   10.04769199970686   17.96516389443736
C         3.68709255884912    8.46934656446850   16.08176983467765
H         3.90533558969536    9.24188130538458   15.34783709942188
H         2.60944252544470    8.32608273073170   16.12647066445191
H         4.14545497382771    7.53876372854788   15.75414867263261
C         1.06553571207053    6.90475799416301   20.89376114008514
C         0.24271700438619    5.61985137124076   20.74992126747996
H         0.68013043821674    4.81418142726616   21.34082400101214
H         0.20897518267747    5.30283813773350   19.70924570481791
H        -0.77518501835034    5.78206163121943   21.09865338108152
C         1.11876071592005    7.31949375353169   22.36365272511167
H         1.52161186849392    6.51641781342517   22.97582051028945
H         0.11499419715288    7.54998185257902   22.71600541075767
H         1.74489120264065    8.19977106977106   22.48974305078065
C         0.39713181274691    8.02313546785265   20.08791289115580
H         0.34994875428866    7.75987244461374   19.03342083869904
H         0.96104320815116    8.94720444897017   20.18931954269243
H        -0.61538695890469    8.19273441326366   20.44803491963816

