101
CSD_code = TUNXAD | q = 0 | S = 0 | Stoichiometry = C43H54ClIrN2 | MND = 6
Ir        8.76477992966920    7.53876309187741   13.14231032949644
Cl        7.09677551892739    9.16590707034935   13.05051886595164
C         8.08556454098584    7.01812422957049   15.12531561793149
H         7.03814942484506    7.30828563998110   15.17887014435226
C         8.32030265217363    5.55068522609122   15.38960372587226
H         8.36530399984187    5.37849391288166   16.47096563171243
H         7.45572692483320    4.99911782319407   15.01218844704628
C         9.59372100985798    5.01624889495989   14.71185320994819
H         9.46118004419050    3.95335307274094   14.49802733943545
H        10.44732003104813    5.09848662012187   15.38647430741346
C         9.90563040944188    5.75311488125772   13.42349209870319
H         9.91693667346463    5.11046241779968   12.54840488530270
C        10.76045231207413    6.87170806608934   13.37605537091050
H        11.37218510614435    6.97757268235808   12.48454628027862
C        11.41879773852036    7.50280901445995   14.58252555321130
H        11.85522031897097    8.45083730739695   14.25825007932655
H        12.24659704329726    6.86803977082865   14.91887941752210
C        10.44528533327562    7.76571964799794   15.74575835720188
H        10.44652392825646    6.92491300189403   16.44146403453344
H        10.78662334130431    8.64197784285924   16.30105031502429
C         9.03561530308896    8.00774669419130   15.26075917353586
H         8.68003537304040    9.02678832570524   15.38466545760931
C         8.75419527195266    7.62851793377136   11.12496959401722
N         7.80142704090896    7.12301625541941   10.32604861711297
C         7.97404779777732    7.47131888123253    8.91652478326862
H         7.06201514558030    7.91455220232604    8.51131069823193
H         8.19793772786458    6.56510780217317    8.34004608130993
C         9.15024804698879    8.44163133118776    8.95812176283533
H         9.96625237830300    8.15906264307072    8.28775337176673
H         8.85675395062304    9.47230638283854    8.72753552057589
N         9.57715436062281    8.35603139530843   10.35353626333675
C        10.85130837918075    8.88088202577800   10.68684121240519
C        10.99668535851564   10.14415400714866   11.21197278964693
C         9.80818358306301   11.00157941421144   11.56012772096574
H         8.89720780370809   10.41797741997536   11.41095325807309
C         9.84642738477851   11.39127056862626   13.03751824955595
H        10.68249295116720   12.05030753166404   13.26052452174899
H         9.92927814643943   10.49401208105860   13.64511283711779
H         8.92166057295519   11.89543870978017   13.30421950708225
C         9.74993781563604   12.23980071308535   10.66337471448975
H         8.85303185794632   12.81266883659848   10.88548794367819
H         9.72778738649280   11.95498689853947    9.61255848798182
H        10.61565976818068   12.87906401004317   10.82280444438918
C        12.30286076827797   10.63282401522654   11.42504830270382
H        12.42424186647677   11.62504180547036   11.83172969048111
C        13.40662398292299    9.89199401392894   11.12138523445747
H        14.39771831277297   10.29139332339002   11.28287324357504
C        13.27881425380550    8.58824194213024   10.60014716835726
C        11.97942141317523    8.06957996181505   10.38114316596178
C        11.84458414433780    6.75161654889190    9.90103490591270
H        10.85155407545835    6.34688454779663    9.77840743520998
C        12.93594173692537    5.96685353344172    9.63064805628877
C        12.77032431355283    4.54582110452188    9.14997065074504
H        13.76652977818727    4.12193351436294    8.98236949113734
C        12.00349558020970    4.49857282260905    7.82639525317283
H        10.98669806417781    4.86163812297036    7.95548514095214
H        11.95630575491956    3.47711076270705    7.45528890368627
H        12.49734210565822    5.11530965535249    7.07839945315496
C        12.06314374649226    3.70113519800520   10.21266654280235
H        12.60027222246721    3.75068075494159   11.15724666212157
H        12.01218620266620    2.66158310326071    9.89556941936744
H        11.05075942117823    4.06106611561454   10.37741150302897
C        14.22168724769985    6.50402500690190    9.82687815037955
H        15.08449872975145    5.89095050866170    9.60765908919218
C        14.38946435767832    7.77497145459442   10.30020448994856
H        15.38128406779514    8.17292297782013   10.46058783439134
C         6.59796335034214    6.47981330754151   10.72438979378158
C         5.43151980015974    7.28265361765920   10.84816852872304
C         5.44333528936278    8.67317046278316   10.61502598989494
H         6.37115813969618    9.14893198571045   10.35043359733998
C         4.31458137118962    9.43529677654677   10.76260852623269
C         4.30323296717786   10.92334741521045   10.51050340356871
H         3.58946653322369   11.36913679458101   11.21276380774738
C         5.66271441896436   11.58354275927516   10.73284152911672
H         5.54541412042728   12.66376290209262   10.79205576179328
H         6.34159813464709   11.36585767144172    9.91061701882236
H         6.10701439531855   11.22502613818951   11.65803472199483
C         3.79970532273173   11.19026842114201    9.08699175541878
H         3.75020756750557   12.26044383148961    8.89749255843405
H         2.80855301621212   10.76565388690416    8.94155071417729
H         4.47353238309244   10.74107705031579    8.35939073116900
C         3.11285668583534    8.80493315069924   11.14040163442786
H         2.22357965104427    9.40757962412734   11.26466687234959
C         3.06027125239732    7.45889003359350   11.35839471950251
H         2.13411591276866    6.98380732651045   11.65041755174659
C         4.21344293749723    6.66056933816106   11.21710207952315
C         4.19483991221842    5.26764170478691   11.42149588130245
H         3.26397223078572    4.79562629121499   11.70268657067984
C         5.32422868569813    4.52111988227616   11.25359215739615
H         5.28034917390019    3.45207468075382   11.39309498101401
C         6.55121181121218    5.11301273181990   10.89728059493743
C         7.76142776184195    4.24298156701214   10.65560034918159
H         8.64328802920212    4.89072250966974   10.64038232125778
C         7.95244552337213    3.20230922599867   11.75921245616052
H         8.93799439647047    2.74721823134116   11.68012705375039
H         7.21279262292586    2.40925636471901   11.68389189550728
H         7.86054430529741    3.67128771964302   12.73401130178320
C         7.63829098744229    3.55208455914246    9.29329917411173
H         7.52505006799308    4.28209928334292    8.49423443398258
H         6.76851137536010    2.89924276266434    9.27676324967342
H         8.52381803415494    2.95206691878292    9.09320547455895

