143
CSD_code = TUPCOY | q = 0 | S = 0 | Stoichiometry = C61H77IrNP3 | MND = 4
Ir        4.44354663186313   11.42074645777421    2.70083675294619
P         2.87117635692711   13.09361214955297    2.57671624997015
P         5.56744038931841    9.49898642570616    2.30205933071477
N         3.29409100598163   10.62286416848647    1.13157060302089
P         5.85080327349390   12.51514969633000    4.11947490231483
C         1.94915346836397   12.60072141731228    1.16583094673785
H         1.09958044874774   13.16132184733934    0.80429043867498
C         4.68491770770391    8.68636294962140    1.11390973534255
H         4.89946914565439    7.68968336404501    0.75926685521170
C         2.25561844465070   11.36490997964228    0.62479173089134
C         1.49841300875949   10.85156208866489   -0.47338879028723
H         0.69119431830537   11.45821965089737   -0.85487005090520
C         1.78516190703154    9.63328071730727   -1.00848832953279
H         1.20913153689371    9.23939701539523   -1.83413703462481
C         2.84149306670780    8.88902594659972   -0.47508816251859
H         3.10043776299135    7.92099972399707   -0.87330679284525
C         3.57412869875548    9.41766690712081    0.57803992589639
C         1.73198260167786   13.73045336408998    3.87657474863594
C         1.76542865876243   15.13007761800842    3.89559169529584
C         1.06187207758317   15.85845086558942    4.83664095052177
H         1.10958378688498   16.93314097655502    4.80201164004814
C         0.31181814733181   15.21217099679135    5.80284902355530
C         0.24114943472271   13.82510753831550    5.73697224937723
H        -0.37948819981586   13.33233407557058    6.46373607609542
C         0.90714278373129   13.05203076381793    4.79334847917235
C         2.51996086019672   15.82060626975504    2.78101872123068
C         3.52233106240717   14.79923919867647    2.24607605899882
H         4.47412306587101   14.91082073263446    2.77469696970647
H         3.71224266989084   14.92159492782080    1.17745245242277
C         3.25757026111468   17.07937149065918    3.24456088229267
H         2.56304039218324   17.88687569687945    3.46454326817759
H         3.92832745316667   17.42164773048643    2.45825661691480
H         3.84382580487729   16.87015461036173    4.13638742796684
C         1.50762213699683   16.20228638834916    1.69405491016076
H         1.01217206224930   15.31315423853913    1.31422973120761
H         2.00916587888697   16.70365004233839    0.86820554269959
H         0.74924579219876   16.87043465020244    2.09801525139260
C        -0.46690390668337   15.95212340793872    6.88028545269642
C        -0.23832856362930   17.46555106173526    6.83207419128532
H        -0.59488488289599   17.88635849438563    5.89480824431261
H         0.81643806017588   17.70397835271098    6.95050858821547
H        -0.78646176013383   17.94271492427598    7.64238765694953
C        -1.96613865024439   15.68655950195547    6.68063163161415
H        -2.54750805848559   16.23499066291195    7.41928779928058
H        -2.19671917200232   14.62955984215969    6.78207407892263
H        -2.27576577187029   16.00847092039131    5.68836070681226
C        -0.03555347083302   15.45521390274136    8.26719352199866
H        -0.60933946429423   15.96226752909478    9.04063401778530
H         1.01958041327351   15.66488828958659    8.43023469438457
H        -0.19438455263982   14.38577149655485    8.37587057508021
C         0.61142750545568   11.55182136862014    4.73789486006880
C        -0.15188620162694   11.28591578843638    3.43404237873004
H        -0.43625360423188   10.23749611062217    3.36926430174180
H         0.46738388625533   11.52962332565489    2.57493774707964
H        -1.05438160033024   11.89339773733361    3.39440695600827
C        -0.27845059096434   11.06472230741203    5.89273144934808
H         0.17863028235733   11.25977397803867    6.86122640947238
H        -0.41088908955801    9.98817083988433    5.79993041396046
H        -1.26657868696201   11.51788690423555    5.85964202440998
C         1.87488860752921   10.69128209051538    4.78425094027420
H         2.36097982516482   10.78036087393724    5.75394913743096
H         2.58836034700947   10.96774063005292    4.00086146545352
H         1.61259119611714    9.64621545730172    4.63137862464322
C         6.91422477333192    8.38297533042648    2.84362936629238
C         8.15314096196539    8.37683741411804    2.16274247335304
C         9.15775479095375    7.53722997888208    2.63283053982257
H        10.09709379385695    7.50770375614953    2.11825486380907
C         9.00392479679715    6.72907560880178    3.74237334239701
C         7.77822138623660    6.75672703997183    4.38639932995586
H         7.65798746650283    6.11855178638747    5.24080513945021
C         6.72286474826010    7.55798633066653    3.97761866070006
C         8.47271507536823    9.18222732380306    0.89019296395166
C         8.18883345814222   10.68012826976398    1.03976513948784
H         8.86232815155428   11.13015083872525    1.76725517811717
H         7.16109020340473   10.87494537887568    1.34251918767903
H         8.34636124185997   11.17838164314239    0.08512160972968
C         7.66045755738732    8.61660694606575   -0.28465786882259
H         8.03974427161875    9.01642531840266   -1.22303807388185
H         6.61282472190858    8.88713758789599   -0.20176294590870
H         7.74327986229247    7.53188479947644   -0.31523099201074
C         9.95408409113826    9.09229198302378    0.47958366019045
H        10.11793629963204    9.75933410865302   -0.36487097817538
H        10.22764420424381    8.09047640471086    0.15694046186155
H        10.61461757003397    9.41241805412515    1.28260692248395
C        10.10673899139829    5.82382337965861    4.27043929594819
C         9.61899428535711    4.36848906031414    4.23204093104611
H         9.35010663756741    4.08943331083836    3.21522919031656
H         8.74880549458017    4.22379819669177    4.86616189533290
H        10.40540709109744    3.70021878627420    4.57675082403631
C        11.39607652973231    5.91388054638426    3.44884355147913
H        12.14406261849490    5.24929075274616    3.87684120463414
H        11.80078217558212    6.92357491179430    3.46003438995620
H        11.22761446180822    5.60727010567847    2.41904130416635
C        10.43576681221022    6.22341452106265    5.71608673307629
H         9.56149632838917    6.15312181181550    6.35730276653304
H        10.80135960972563    7.24793244401722    5.75052372450597
H        11.20725808627556    5.57023610907958    6.11860503613428
C         5.41762786600986    7.46232416200000    4.78389220506740
C         4.25538061320658    6.99490639575366    3.89541497047407
H         3.89810035750140    7.79279702134646    3.25213952367594
H         3.42271087722853    6.67237955297924    4.51742387230356
H         4.56399917480277    6.15519983778585    3.27592256222898
C         5.50424296957750    6.44653010038389    5.93731132682651
H         4.55338247443003    6.44298808873464    6.46701834551264
H         6.27298366176622    6.71844889721307    6.65733852990736
H         5.67976368994545    5.43679432016554    5.57282454454736
C         5.07631242330574    8.80243205494862    5.44182132475710
H         4.94269787553677    9.59738276374400    4.70823774604402
H         5.86761755544165    9.09538868600636    6.12729460157611
H         4.14849757120769    8.70794904135382    6.00186495118579
C         7.14921371707014   13.41664752657816    3.19613986165405
C         6.91490323227746   13.68524090954599    1.85232178418870
H         5.98956758527781   13.33791871701553    1.40536486033727
C         7.85162556038384   14.36860476050662    1.09928044967365
H         7.66118007942590   14.57524922487103    0.05629774858545
C         9.03744735851896   14.78241953761757    1.68360533353000
H         9.77414616201890   15.31278815365815    1.09808563981018
C         9.28170698401542   14.51137147176585    3.02064021029294
H        10.20832899678965   14.83104012631300    3.47568870782685
C         8.34330670082010   13.83296773928688    3.77721678219144
H         8.53684837156571   13.62167002089310    4.82016762488201
C         6.91518188751835   11.63445235561617    5.33093927408128
C         6.76556701264119   11.71004395899380    6.71042879871983
H         6.02201038615353   12.36328342937945    7.14317491809457
C         7.57441292924258   10.95010888898763    7.53927524784336
H         7.45250857463420   11.01770228215658    8.61099734879619
C         8.53126609973657   10.10392802994890    7.00446394952122
H         9.15390374338085    9.50903649721358    7.65669735413481
C         8.68476974149057   10.02280511615092    5.62938126407072
H         9.42258668386682    9.36212322187590    5.19931734202247
C         7.88030059537121   10.78119142019357    4.80327426643426
H         7.99213347276706   10.71891991561803    3.73205495227526
C         5.19459394389667   13.83468616812875    5.21055331606594
C         5.71563799815714   15.11775506907251    5.31290928472529
H         6.56581477400539   15.41206425441617    4.71383078485802
C         5.13910719797086   16.03120464721020    6.18018287225447
H         5.55018782556654   17.02838658573882    6.25551124179545
C         4.04434608636205   15.67470051098777    6.94942550177606
H         3.60138804317581   16.39440668748546    7.62236152539156
C         3.51922582694541   14.39697720797528    6.85090788860589
H         2.66377738927125   14.11138947829684    7.44368433521470
C         4.08822380733982   13.48837802756771    5.98097492807886
H         3.68533957406033   12.49036881829029    5.88816239597263

