92
CSD_code = TUPFAN | q = 0 | S = 0 | Stoichiometry = C33H39N5O12S2Ti | MND = 7
Ti        3.78329674166152    5.55481931971277    7.37981050723830
S         1.25177087417942    9.52462676477662    1.66227209671783
S         8.68943327904950    0.01194527601167    7.68215732164468
O         0.00274643343239    4.48750585040010    8.52414903432302
O         1.94829946328389    4.81944906861994    7.48047652982275
O         5.92871387427956    7.76045890768960   10.07755300559969
O         5.17406949078050    6.59895932356528    8.32654121325213
O         9.63874015793560    0.41227577735703    6.68574658568795
O         8.12762168096348   -1.30395128310973    7.62295355888455
O         1.96854478464081   10.73700494165482    1.40344458064500
O         1.16621108778239    8.53000049666833    0.63389852664276
O        10.31951572778299    0.78603970485253   11.73957550280605
O        -2.79532855978159   10.45130423551930    3.23599261375871
O         4.41750355277581    4.03393475549254    7.94404546423515
O         3.25176439084892    7.00567194051236    6.57584507013819
N         2.97723679191729    6.11536296674253    9.27506217088762
N         5.82134178826428    5.41987872275570    6.02526459338291
N         3.25804995857626    4.64046913615334    5.16513869375942
N         9.45133087300892    0.14870892247012    9.16012967860447
N        -0.31233884473535    9.95821772848739    2.04966622671079
C         5.37285946369179    3.14289328036179    7.88805544933930
C         5.15106627935175    1.83201087882716    8.34884006829404
H         4.17849427443101    1.59892541137421    8.75881862064999
C         6.14276352382528    0.87585252824404    8.27196130397574
H         5.97742352071395   -0.13754282011368    8.60124713047479
C         7.36923829306518    1.21424138425626    7.73044895935710
C         7.61568787576938    2.49490232557461    7.27055940946838
H         8.58458778846167    2.70470145631608    6.84276415003644
C         6.63701681555168    3.47138381178990    7.33751841100079
C         6.90691870928763    4.87211706591682    6.85712209786852
H         7.85148447624364    4.87760062149952    6.28825316045771
H         7.02201272980834    5.53153414267457    7.72453554041795
C         2.79996067026399    7.56304489510889    5.48289220458642
C         2.92916186303781    8.95017016666893    5.28542974056497
H         3.39600754356121    9.53034241627024    6.06884666069555
C         2.48082846493675    9.54557522006773    4.12442872118190
H         2.59488691695868   10.60375574299984    3.95133440804085
C         1.89919581363229    8.76400765771929    3.14314617823812
C         1.75802419654709    7.39847690558002    3.31048702812300
H         1.31139683557694    6.83023093293911    2.50832848594388
C         2.20045617266768    6.77821413644896    4.46608333725283
C         2.03723445644471    5.29472814661509    4.66258021490830
H         1.73693921286705    4.83904593649549    3.70448050312995
H         1.24234907197737    5.11566361692691    5.39510727607875
C         5.68508593246491    4.58923363080955    4.82619555196641
H         5.78540669716087    3.53946067750511    5.11621464897370
H         6.48365580748870    4.81477359646399    4.10067516304127
C         4.32623788661085    4.81725289322141    4.17820751690824
H         4.27105078283482    5.83531089396973    3.78248271120054
H         4.19786000200394    4.12161718942750    3.33293001222928
C         6.18988407463703    6.78329652472845    5.63637378829517
H         7.14774062607175    6.78795537848672    5.09499978963896
H         6.28402352138318    7.40083174014399    6.52866510719899
H         5.42457251695534    7.21928468697020    4.99545265330917
C         2.97663133292401    3.21225363042562    5.32904259094207
H         2.65508947021199    2.76705997730926    4.37559816403735
H         2.18536522264159    3.08135344495926    6.06594467248913
H         3.86341456050698    2.68534746322894    5.67934989465859
C         8.68988793684604   -0.29052066201647   10.30625149835657
H         8.23862750171714   -1.24866444030109   10.05106591227946
H         7.90244108540755    0.43756181990423   10.55908526685694
C         9.65119013381312   -0.42878774645429   11.48969467835446
H         9.10834675810423   -0.67262080908844   12.40404969894123
H        10.38152163485396   -1.22015567195264   11.26888872325901
C        11.05737880344854    1.20255274875582   10.61409302910013
H        11.82561763319616    0.45441653723378   10.37203762238665
H        11.53349002460416    2.14380174978402   10.89245018424904
C        10.14474764242854    1.39303764598716    9.39941953453722
H         9.43277960589548    2.20955968922658    9.60105699412733
H        10.72362898347230    1.62149966413850    8.50525021820581
C        -0.44835937603839   11.01474957082668    3.02533025387040
H         0.24468012719206   11.80780348186096    2.74674881840105
H        -0.21043886176519   10.64977032994844    4.03742063965541
C        -1.89698413723013   11.50884148708346    2.99226903221281
H        -2.07300634492104   12.24623846203839    3.77679093263916
H        -2.10198455876485   11.95604883585309    2.00921821884803
C        -1.22836001325857    8.86618217946983    2.28424732493119
H        -1.03031859886388    8.38632124830989    3.25624020118675
H        -1.08739971720652    8.14364232633641    1.48116654761909
C        -2.65192683542493    9.42989403676621    2.27644930695923
H        -2.87707359887738    9.82270811776929    1.27469567423331
H        -3.37580057171462    8.65798254085246    2.54154883491160
C         5.08108800441238    7.12163357669837    9.49012631502027
C         3.71174895133314    6.83363441867604   10.10776858102047
C         3.22827308069714    7.22531886294156   11.35004755698887
H         3.85489624058850    7.81123684022212   12.00396487357507
C         1.94084284388230    6.83988741995439   11.70234459875825
H         1.53177705040063    7.12585313864722   12.66034464324098
C         1.18194999394320    6.08496414820085   10.81672112800082
H         0.17823582648744    5.76284017157176   11.04553723283674
C         1.75000128270330    5.74164029963224    9.59613939333676
C         1.12956451944049    4.93173783656964    8.45661223137107

