46
CSD_code = TUPKIY | q = 0 | S = 0 | Stoichiometry = C18H17FeNO8S | MND = 6
Fe        2.36105683756670    4.27537281028592    6.90328783138421
S         4.62644109176879    6.95595702100337    3.26738699299090
N         3.96575940031228    5.66543390571897    4.17291876233433
C         4.69645935383758    4.91809301681371    5.07029987374455
C         3.84543190772737    3.75984122586022    5.46900947792001
C         2.60178304870652    3.88957807236550    4.82601368716542
C         2.61037751300795    5.16475268041288    3.98841851295761
O         5.81774490036523    5.18024094292381    5.42717802215370
O         1.66910952660395    6.07333035616851    4.48054382161990
O         3.62658509361255    7.25884592060123    2.28380996998987
O         5.91546313243254    6.55848428017872    2.80957052638700
C         4.73071672921637    8.26306467176362    4.46485501568579
C         0.65221053997277    4.77577873577807    6.82218844694118
O        -0.42955902421115    5.13214574271515    6.77376985402241
C         1.88146881225968    2.61313824752276    7.26546475498145
O         1.54988028190297    1.56498045106847    7.57255677328405
C         2.78256918280753    5.99753541975007    6.82752099287880
O         3.04484484163737    7.10395079067959    6.89914297419099
C         0.85226662320380    6.79634866672323    3.54480769039638
C         0.22372660900142    7.93358214249418    4.34201969394991
C        -0.22190425657736    5.88862528698879    2.94845264905717
C         5.73961751366193    8.23684899351262    5.40829054426773
C         5.78145262471776    9.23445950354447    6.36456038371896
C         4.82880615959925   10.25134047608784    6.37932880745903
C         3.83143248812160   10.25620826838700    5.41055909184002
C         3.77907863927491    9.26134108431131    4.44913988178716
C         3.22086791385107    4.27632715978642    8.46314915147244
O         3.72987145102912    4.29594768436529    9.48449431176822
C         4.89207248400427   11.31805375133054    7.42768218550488
H         4.35564289479313    2.82093787404205    5.65562210509074
H         2.03869208262766    3.05277046106983    4.42662669094448
H         2.44790740908905    4.96966252122685    2.92051024073670
H         1.49369440604792    7.19431915358331    2.74939771968388
H        -0.44780470537718    7.52824208347338    5.09500294903714
H         0.99658391689198    8.50872482068819    4.84429104386237
H        -0.33685373764099    8.58685439436015    3.67970000395914
H         0.22229704415033    5.07745585084095    2.37642059348595
H        -0.82984291731923    5.46213096207990    3.74349857579781
H        -0.86003233697102    6.46559052336994    2.28514230852147
H         6.46040150669887    7.43553773601720    5.38350969171594
H         6.56085098287785    9.22750991212333    7.11204914074624
H         3.09121319126446   11.04307317236781    5.40781106483574
H         3.02379442120349    9.24986646571177    3.67971163962642
H         4.78063220035237   10.87864210561740    8.41790400764065
H         5.85716029587093   11.82110246665421    7.39645035510711
H         4.10823192602776   12.05677218763111    7.28453118735581

