74
CSD_code = TUPXEJ | q = 0 | S = 0 | Stoichiometry = C37H31ClN2P2Pd | MND = 4
Pd        1.41540040139550    3.12878657740520    0.18299923844672
Cl        3.58045098090653    2.49368625645913   -0.13514300150128
P         2.71079766892987    3.17707375638835    2.71585370121423
P         0.97818721783306    3.16870024094957   -1.99731107234588
N         1.18126890727951    3.02278182286076    2.30055155806005
N        -0.43918708638959    3.81313242330113    0.37103939831024
C        -0.88275730941044    4.09808287701428    1.59641145275067
C        -2.17449412808967    4.51962317663569    1.82721575268149
H        -2.50522633375481    4.74545773764214    2.82747108936814
C        -3.03676123322413    4.64213687815112    0.72646943829641
H        -4.05890961754666    4.95472906780914    0.88436041042713
C        -2.58247383637041    4.37332763892746   -0.53000341065604
H        -3.22363979456517    4.46582628431843   -1.39256981713441
C        -1.23304819786484    3.96129684477486   -0.73626451164763
C         0.13282468726590    3.96088679467891    2.70453348073349
H         0.51863339822850    4.96384805679047    2.95122228179687
H        -0.35788507604352    3.57516573644978    3.60953258308604
C        -0.67500453766340    3.75972564362121   -1.98992000668181
H        -1.26725057816977    3.80559597853759   -2.89129826465046
C         2.79668751506838    3.53703315207355    4.50402392356830
C         2.98425476561163    4.82213685099808    4.99612268882180
H         3.20432344595803    5.63409207870574    4.31528192893933
C         2.90043043679950    5.06047339049351    6.35707035047280
H         3.05197344873434    6.06014658192797    6.73748071691428
C         2.61962141727993    4.02191170036665    7.22893563438326
H         2.55780922245299    4.21043905510783    8.29049101211619
C         2.41165724481104    2.74161352160228    6.73930598479231
H         2.18465751364279    1.93269756014687    7.41814991057914
C         2.49176191064280    2.50170805415762    5.38091169406192
H         2.32261359494022    1.50924135670291    4.98397924422367
C         3.41406434487279    1.51427682247386    2.58136507926979
C         2.62754533391853    0.51482536302305    2.01848385444435
H         1.64390728166478    0.77220700820808    1.62815135412532
C         3.10758672328713   -0.77698201831808    1.94420397572198
H         2.50316192359685   -1.55216803972034    1.49668306483409
C         4.36918064313607   -1.07772154284214    2.43666913161971
H         4.74743359646273   -2.08717310248857    2.37017886497523
C         5.14391732313491   -0.08623155875546    3.01258539344924
H         6.12435847477972   -0.32134628573455    3.40039657011055
C         4.66687244014652    1.21118440203566    3.09328847604601
H         5.26919315107776    1.98081191952700    3.55394366329453
C         3.68664585071468    4.56568403735375    1.99743710705792
C         3.09401201693641    5.44617436595522    1.09231100381147
H         2.04142393111542    5.32917866801689    0.78547223398791
C         3.83392997351656    6.48475978336818    0.55531373861361
H         3.37453534272062    7.15718419180435   -0.15458201396613
C         5.16039340297302    6.65695694349038    0.91906692067620
H         5.73814117383005    7.46028850491046    0.48669064907999
C         5.74220321222037    5.80079279924816    1.83827515983418
H         6.77317187539169    5.93773444747294    2.13012837013345
C         5.00684870334668    4.76356130781262    2.38344347749607
H         5.45989385058467    4.10197564188270    3.10682410401372
C         0.96953534770248    1.41949064116829   -2.52432612688358
C         0.70866352108592    0.47971953808465   -1.52750088402372
H         0.58587733251070    0.82592554152860   -0.49075092468520
C         0.61011162579498   -0.86105482249826   -1.84307447820002
H         0.41861821559952   -1.59023183603788   -1.06885313903151
C         0.76046624209506   -1.27276219352692   -3.15917594337527
H         0.68840192221938   -2.32154555696005   -3.40785409850771
C         1.00129357265279   -0.34105713689870   -4.15507504999104
H         1.11081537925322   -0.66382582664866   -5.18054979355471
C         1.10283050610197    1.00379203613268   -3.84362904795847
H         1.29418300405193    1.73199044640284   -4.62007569234628
C         1.95402055704915    4.00856106030742   -3.27056215841754
C         1.47491454702573    5.15633594505674   -3.89101875222325
H         0.49532928277069    5.53006917556173   -3.62539154047356
C         2.24943610756868    5.80237757829755   -4.83799256724382
H         1.87424685460848    6.68935994350591   -5.32850885697094
C         3.50714880765544    5.31515095428575   -5.15441276534594
H         4.11165435235390    5.82321098383805   -5.89202110670206
C         3.99623746439111    4.18300820102349   -4.51974090125147
H         4.98265307299870    3.81333971313629   -4.75933676364442
C         3.22556439858583    3.52934190225276   -3.57762670022707
H         3.59776126797644    2.65337295739094   -3.06385627682267

