69
CSD_code = TUQGUH | q = 0 | S = 0 | Stoichiometry = C34H29O3P2Re | MND = 6
Re        3.89213959975993    3.16182146477529    1.87477464798189
P         1.84423811283288    3.51274373193541    0.57872518858678
P         2.37712513920750    3.69022934697022    3.69199846248775
C         3.84112585196892    1.23949331216931    2.04114772857319
O         3.80711497472259    0.08547045540302    2.13337055406696
C         5.43486358247571    3.64139708848232    3.17203009164795
O         6.11396797027341    3.14315990730269    4.01526699722993
C         5.10372995309787    2.97788229787119    0.37415988440884
O         5.81449000515274    2.89306708357064   -0.52707616669320
C         4.45540051023474    5.72825706134684    2.05482757331050
C         5.01827236196463    6.00354148470585    0.83878594776124
C         6.43032557596026    5.78715277861697    0.91091313778075
C         6.76072406002020    5.42446698210618    2.17361389701831
C         5.53525420024281    5.26344401155593    2.96923611651244
C         0.42067087607069    3.58243532596642    1.76311779761572
C         0.83300700980606    4.41836238795904    2.97090061585690
C         0.88015388814651    6.10798063073069   -0.17770958554706
C         0.92133754637750    7.21462537528351   -1.00973798685840
C         1.79336715293961    7.25135197680314   -2.08366983701435
C         2.63498463300603    6.17662616587204   -2.33021242749446
C         2.60229353959912    5.07458128227889   -1.49978977321587
C         1.71715989047256    5.02740933515965   -0.42285157439967
C         1.98885196340610    1.14751523474670   -0.86662737224650
C         1.54887191530902    0.21862298648567   -1.79352784070836
C         0.37640810686881    0.44191095063995   -2.49563573699584
C        -0.35648521723437    1.59862684143792   -2.27797692714608
C         0.07847520021293    2.53077621729162   -1.35555245343366
C         1.25040674400007    2.30173485350612   -0.64057904440017
C         2.33043751477198    6.14852939167373    5.13036132779303
C         2.77645494972742    6.97855517209376    6.14471390913603
C         3.71089860011462    6.52558130154079    7.05933898826994
C         4.20142266664356    5.23276920917015    6.96137133878466
C         3.75850806019156    4.39953040041098    5.95301931701000
C         2.81475733636194    4.84920136223120    5.03008001964072
C         2.74476881977139    1.29066575899109    4.96467669007085
C         2.41446410019087    0.21234952186988    5.76390500373815
C         1.14275252332246    0.11459366047899    6.30370385277005
C         0.20614539651586    1.10226784947968    6.04830266015773
C         0.53313092153268    2.18728449270457    5.25500683106271
C         1.80401744178226    2.28353237306827    4.70013854016238
H         3.47248063414028    6.04047152254518    2.38792374900822
H         4.49991718029185    6.36378995315227   -0.03500749581978
H         7.10480919179307    5.91813527902706    0.08441917610798
H         7.73369581554663    5.15302851314632    2.53984223500871
H         5.53052280003275    5.66582812912324    3.98032254848556
H         0.18581666739110    6.09848778662612    0.65108408925485
H         0.26733703891879    8.05284697285462   -0.81589840364209
H         1.82034950623920    8.11853602156723   -2.72657105048064
H         3.32028240158807    6.20447425148268   -3.16445166059153
H         3.26426711394002    4.23283722509205   -1.66634994471462
H         2.90665651021696    0.99579328533081   -0.31198815383804
H         2.12357913144752   -0.67820734337525   -1.96821127515588
H         0.03283507699189   -0.28236195995174   -3.21934792819280
H        -1.26672250320991    1.77475474248927   -2.83263708716725
H        -0.48380249147050    3.44160733394896   -1.19739282315037
H         1.60380634564234    6.52928443304462    4.42653410603337
H         2.39332820537292    7.98641718576432    6.21532728096457
H         4.05916391626829    7.17994186706011    7.84452370785976
H         4.93595831226135    4.87519576357565    7.66727338359351
H         4.15238355532875    3.39620758157573    5.86740993829571
H         3.73428867729357    1.36704758793703    4.53070554314066
H         3.14935179254504   -0.55351992791621    5.95956784100092
H         0.87925939875153   -0.72947500820496    6.92360485283135
H        -0.78562711682682    1.03036863134571    6.47126824723961
H        -0.21166350856278    2.95018006327084    5.07895022555273
H         0.23024441790730    2.54595880914155    2.06860040904031
H        -0.48023092928438    3.97116166622506    1.27824382748861
H         1.08074914122039    5.43371583922854    2.64005345544575
H         0.03623024049748    4.49104673040089    3.71656081303391

