123
CSD_code = TUQMID | q = 0 | S = 0 | Stoichiometry = C48H67BN3O2ScSi | MND = 8
Sc        7.32958000246177    2.30307380897236    3.49638247966925
Si        7.22607867345056   -0.70024440727049    3.03237120509708
N         6.78210851481673    0.43697030268277    4.27128275561283
N         3.58246688047798    4.89874091387039    5.76680369559989
N         5.58642046102168    5.06041451872719    6.81367230450368
O         6.50947937839219    3.80622606243444    3.93817977221101
O         9.13349587573024    2.43419277077746    4.72786001651224
B         4.97306900124946    4.92630555302030    5.53470772082586
C         7.78721014721255    0.65034077860613    1.82849181294308
C         9.06107072386661    1.27562285250459    1.87037082245610
C         8.94640680290395    2.59830003144693    1.37847150931077
C         7.57990354016740    2.81777286115057    1.03612358225894
C         6.86084600863976    1.62323410030515    1.31670804298217
C         5.47481789623597    1.33869368086101    0.80053131989683
H         5.53387476035648    1.01818225972851   -0.24390454856576
H         4.84721108148239    2.22934177135675    0.83666009245873
H         4.99544019489584    0.54671314654833    1.36826692600152
C         7.06134002455062    3.98109829792144    0.23404980811851
H         7.01287263602763    3.71443323184494   -0.82529576438763
H         7.71438504932862    4.84556988806610    0.33421219637501
H         6.05913140876395    4.26742543291271    0.55335838601582
C        10.06125508588004    3.53453165995121    0.98728403122649
H        11.03468543218222    3.13776121787263    1.27083497547624
H         9.94973010749016    4.52049319278403    1.44252853634563
H        10.06520557867011    3.67153335436703   -0.09640186005202
C        10.34595782060255    0.56647659102008    2.20372012868289
H        11.19563192262046    1.05018685148141    1.72258171752059
H        10.29843029870849   -0.45844522510191    1.84319729556868
H        10.53928043755499    0.52949203386403    3.27726838367290
C         8.58888315187708   -1.92426343595010    3.60015000288122
H         9.38335293756274   -1.43031303219033    4.14822633946983
H         9.03249105987973   -2.44085135053946    2.75621757960170
H         8.16404666109880   -2.67788155248409    4.25539234257786
C         5.82679132339521   -1.81939276233304    2.34132853744924
H         5.93003615014381   -2.83325369612237    2.71418807975409
H         5.84684164387048   -1.86811410838081    1.25801189574697
H         4.84667240058504   -1.46229594854862    2.64154561946009
C         6.09391824028448    0.19489520777493    5.42048205350843
C         5.76238945927088    1.28021614953283    6.26052575630888
H         6.07156352858626    2.28000179682010    5.94212893457360
C         5.04029688224354    1.09557157926125    7.41994684834861
H         4.77450380609037    1.94861724681184    8.02960717702325
C         4.63708221168707   -0.17362232799806    7.80737695814095
H         4.07071548574826   -0.31568468941309    8.71549473603250
C         4.96764568208882   -1.25588923352908    7.00591718839282
H         4.65845633254973   -2.25124991064352    7.29561784572574
C         5.67861586133352   -1.08293473500422    5.83792482808500
H         5.91973115583468   -1.93229023730653    5.21752684663302
C         2.47985934712695    4.81193724519808    4.88173821164884
C         2.05975142635759    3.56020764573622    4.42182881200705
C         0.97872041638268    3.50031318912582    3.55267956950322
H         0.64743816443121    2.54370079255044    3.17889983344386
C         0.31455751568411    4.64754278798727    3.16446588059911
H        -0.53082821160001    4.58340804298190    2.49502576757503
C         0.73292162911693    5.87782687953127    3.63285926672619
H         0.20720084369062    6.76906244953153    3.32517419649787
C         1.82095879390899    5.98146107929103    4.48860738441420
C         2.27746399050039    7.33917084344725    4.97005841533538
H         3.18144045845717    7.20992734238961    5.57148127370270
C         2.62916160226105    8.24236301428304    3.78614797048751
H         3.34631178625962    7.74593569246320    3.13630342911885
H         3.06735019388530    9.17252778925307    4.14182065722736
H         1.74572439330670    8.48341483483391    3.20048034911004
C         1.20864555836827    7.98934579315552    5.85129075188933
H         0.28970808179675    8.14888001993966    5.29241279463325
H         1.55929959451030    8.95140273000070    6.21890058811136
H         0.98348902275016    7.35514793982506    6.70580875994000
C         2.76980392152736    2.29750804246786    4.84491635961026
H         3.45740078472872    2.53521181554414    5.65930997979043
C         3.59507531101933    1.74585451727643    3.67893289941650
H         2.97589429793195    1.63923011506764    2.79011862984883
H         3.99850819561009    0.77079421501116    3.94522076420380
H         4.43502997767059    2.41433602288972    3.45231042042843
C         1.79337780092589    1.23826234625880    5.36096531964777
H         1.17934716291146    0.83727578187706    4.55850260024804
H         1.13741496970599    1.66000471380157    6.11976339329654
H         2.35356941011997    0.41853993310154    5.80527438277679
C         3.38932197560554    5.05492211965218    7.13281748283757
H         2.40244677395326    5.08255449275675    7.55269690705245
C         4.57750820975883    5.15395828527354    7.75944626778678
H         4.75073864548806    5.36259123587854    8.79515458554973
C         6.96931843445862    5.15738534495756    6.98198416161982
C         7.69535796307337    5.72034890327584    5.90660777854767
C         9.04502926429979    5.97630188351854    6.08670345831772
H         9.60902090839997    6.47931145480929    5.31673910893124
C         9.69390028350486    5.63689516823731    7.26288651552601
H        10.73962160482322    5.87647586548901    7.39294084155807
C         9.00135312133872    4.97507210216099    8.25308543661237
H         9.52207599481854    4.67052483108159    9.14839777398899
C         7.64241666825219    4.70486791609228    8.12755216131019
C         6.96610243991207    3.92610342244916    9.23640783794685
H         5.95141461989808    3.67379397683617    8.92711693094625
C         7.66991550325817    2.59356218349854    9.51163365201399
H         7.62010836928446    1.94829198875456    8.63745502776102
H         7.16881126495282    2.08471909646927   10.33240491003324
H         8.71195082175180    2.73277324609319    9.78787143851442
C         6.90209816562459    4.76564837627992   10.51650794179399
H         7.90137434545593    4.94644284258602   10.90576888685106
H         6.32560998189689    4.24791199297486   11.28046626775790
H         6.43804391259533    5.73196727156206   10.32715845091603
C         6.99647704712511    6.10169824190467    4.60869959166591
C         7.95010110540071    6.18005628369171    3.41238351553615
H         8.70944504865817    6.94935028835319    3.53246528481212
H         7.37127838007262    6.41988014503285    2.52225423852106
H         8.42369595547589    5.20770305843309    3.25597285191036
C         6.33872501691429    7.47494902329082    4.80590064008111
H         7.10353870983316    8.22698477395254    4.99300966212896
H         5.65491553037996    7.46566578605599    5.65061785802599
H         5.78228835610125    7.75928580342077    3.91589032512470
C        10.34097683049410    3.19934164954190    4.58829447481422
H        10.11861364326124    4.25636110180631    4.77397203885961
H        10.69167807630360    3.07135830630897    3.56309425692305
C        11.34518062180047    2.67055159082142    5.62834133080591
H        11.58568482802436    3.45115952307925    6.34881384703926
H        12.26927546161167    2.33195283371379    5.16479066411774
C        10.59113256014548    1.52717440558264    6.31077701018485
H        10.82102188666888    1.44186246034012    7.36950760257521
H        10.80782280526643    0.57464223811889    5.82604358832582
C         9.13949198838586    1.92029633782274    6.06335183044756
H         8.44450765346179    1.07889138866629    6.10558033654369
H         8.83096432295392    2.71171087902874    6.76023407170990
C         5.91253936173326    5.02702957528521    4.25768457954007
H         5.37518937831363    5.39517419784913    3.35999100095000

