123
CSD_code = TUQMEZ | q = 0 | S = 0 | Stoichiometry = C48H67BN3O2ScSi | MND = 9
Sc       15.01425636157601    6.83142916437150    6.24133276902419
Si       14.72922107881706    3.84885818663477    6.65741347059398
N        14.63193006724353    4.98397683846647    5.34971074008254
N        10.90408094497234    8.86571653474232    5.64830656050703
N        12.32764753218606   10.44980077455403    4.88113691781400
O        14.67250620065538    8.64204495322389    5.84597470811382
O        16.90935123396200    7.07318711796192    5.19894862685685
B        12.28616456684712    9.16876093083443    5.50706339636950
C        13.47989622579505    8.21896559858522    5.86748120880120
C        11.03394477422076   10.86118094104947    4.67032114176632
H        10.81158769626010   11.80140631553324    4.20324541332043
C        10.18370877054275    9.91980388014055    5.14124301444083
H         9.11054962471016    9.92500616646418    5.14292364805894
C        10.09306618882254    6.99829048389486    3.15485939516320
H         9.11815837782950    6.51647795564823    3.10267464733424
H        10.58644045923294    6.88180416393701    2.19254085144848
H         9.94194876575271    8.05911198685454    3.33815848381693
C         9.60262633613899    9.26400780277009    8.19242930613235
H        10.23920360705177    9.96720403372449    7.64757999524724
C        11.22860074011697    4.89724494097956    3.88761681189858
H        11.79317473121056    4.40698007082050    4.67591554209871
H        11.83056962619868    4.86690570285260    2.98281668340024
H        10.31007961961915    4.34573395906521    3.69732492508366
C         8.93348121716172    5.62379303842831    7.40666912534348
H         8.41519393222359    4.78946888348656    7.85550881599545
C        10.94250957978924    6.35091642249985    4.25588447655580
H        11.90947931037142    6.86657922685087    4.30837221158461
C         8.94595040733579    6.84952137931883    8.03849952822120
H         8.43475727952145    6.96654983205153    8.98153920466351
C         9.58403991833864    5.46071316809860    6.19725938170984
H         9.56081736756945    4.49526561936293    5.72033200593544
C         9.60595018421799    7.93314581175130    7.47324803328710
C        10.25760863676885    6.51429565132507    5.59585634406046
C        10.25482506629221    7.75677102755298    6.24715449459850
C        10.17242586079902    9.12664032163632    9.60558953177693
H         9.53371048533961    8.50783923176206   10.23020616100757
H        10.25538259532709   10.10695677365015   10.07067388515425
H        11.16017969987644    8.67558722169455    9.56977949002967
C         8.18608598553549    9.84366009138051    8.24169987279271
H         7.78067058565381    9.96014196513396    7.23906631047075
H         8.19579374094315   10.81884058659324    8.72400124570498
H         7.52215039505676    9.18992935588981    8.80189898988041
C        12.30291406511608   11.20276435921134    1.10132568811473
H        11.58305759112492   11.83822379372778    1.61259395608351
H        11.76460062112425   10.56743460080687    0.40157804309632
H        12.98058491421367   11.83974787619649    0.53764893775433
C        14.87814266530987   11.61437709619375    7.70877133215947
H        15.19306231785241   10.61687608461845    7.40792747463256
H        14.57640786756491   11.58630492353965    8.75339269840383
H        15.72409512866588   12.29118957950943    7.61420964488841
C        14.05471605223371    9.41703335148782    1.38876482647955
H        13.50824561052803    8.72413383504370    0.75294119845927
H        14.62739243590734    8.84473446906073    2.11570959730117
H        14.74726314633036    9.97761482687153    0.76551396843757
C        13.70726799277817   12.06742291543720    6.83573429786195
H        12.88388587649476   11.36412464565916    6.99314948781502
C        15.15234258633649   12.82557502894893    4.92788622445388
H        15.68528407955201   13.45468635213662    5.62452387993590
C        15.52286004569540   12.82313016446899    3.59744817189893
H        16.33857525241584   13.44686625080871    3.26212619067963
C        14.84849018327757   12.02292033142484    2.69580208715138
H        15.14465595059009   12.02807604298529    1.65784605317437
C        13.07364979357381   10.34399989444940    2.10706158926882
H        12.35538090719514    9.71318143450060    2.63926475313292
C        14.10073364866984   12.03918720219839    5.37812945109212
C        13.42269671651821   11.23888023134806    4.45440587813385
C        13.79494574778888   11.21806055323480    3.10638107837000
C        13.22236408945031   13.46199692742959    7.23863433895933
H        14.01628711519111   14.19704136681717    7.13179429964013
H        12.89581478414592   13.45880307874825    8.27632945573466
H        12.38545824450597   13.76874712501285    6.61440147843239
C        15.13777167304464    5.19281829588462    7.92627773508507
C        16.38827739012875    5.87722187054898    7.97156345559496
C        16.17255687286826    7.19231381389759    8.46168758761436
C        14.78273355882806    7.33409325128591    8.72184677718438
C        14.14801397058446    6.12282916445667    8.36366936421953
C        17.74228179404940    5.24160610273163    7.81165053964192
H        18.49139920451845    5.96721860182871    7.49489804888235
H        17.71506482811356    4.42788254777738    7.09285285330037
H        18.07327676469857    4.82862718001985    8.76887399295108
C        17.23959333398114    8.16485943038903    8.89015893218034
H        16.95111368715152    9.19616700285506    8.68247120548213
H        18.18231368548547    7.96656040642131    8.38206926394482
H        17.42071475382233    8.08022907613166    9.96517216656628
C        14.12903241440926    8.49255589080332    9.42403492088932
H        13.40496370845005    9.00089154243600    8.78220443938234
H        14.87456917279999    9.21754075797489    9.74141739190304
H        13.60469560380169    8.14324909250461   10.31607660770862
C        12.68549725659640    5.82377566871273    8.55479956168089
H        12.55993801270711    4.81814255169224    8.95114710462142
H        12.13028137518839    5.89372519005450    7.61552067779275
H        12.24034736381658    6.52396713904645    9.26006284858345
C        16.07257188199052    2.48296116279549    6.49367281834393
H        15.61798295290177    1.54837253549068    6.18203135453088
H        16.57967950242302    2.29663517565166    7.43408615213242
H        16.82258571354551    2.73702671719278    5.75004165302572
C        13.11834259915948    2.86398404969635    6.98296623517562
H        12.23552466607223    3.49045662643626    6.93103291859333
H        13.13881226638022    2.39283656321281    7.95995366070390
H        13.00666646157530    2.07686203627008    6.24375167026000
C        14.48222462225309    4.36242268616380    1.22324002302985
H        14.45111657589311    4.21649689646472    0.15373723238726
C        14.54661392853106    5.83058913384753    3.12285741904582
H        14.55324402662933    6.83933518167648    3.55012509503732
C        14.50738772178925    5.64148180149180    1.75818343613177
H        14.49653707506356    6.49659275238304    1.09556888328612
C        14.49279135023246    3.27524566046201    2.08527826902793
H        14.46768561784807    2.27227692847055    1.68047368235202
C        14.53517353020437    3.45345961461645    3.44952065320967
H        14.54007506437286    2.60026190424842    4.10982904539836
C        14.56772040267631    4.74108198722684    4.02018935915571
C        17.61942773981931    8.29569250122104    5.04618139588126
H        17.34049643450625    8.95810130692683    5.86760200622577
H        17.34212866240361    8.76677022393446    4.09112262739600
C        19.10237649480802    7.90520324300327    5.04337584396310
H        19.68759460588742    8.56978533540910    4.41186921752226
H        19.50887202143447    7.94949233980158    6.05299735960436
C        19.08868915888500    6.45793988060630    4.52214292586739
H        19.60777020384923    6.36025634992186    3.57104688563933
H        19.55629440471205    5.78172164349148    5.23535623807075
C        17.59324402501105    6.14151191118118    4.36679672582947
H        17.31591385188204    5.13751949191674    4.69068501825596
H        17.27511880419516    6.27950332785450    3.32357527201951

