39
CSD_code = TUQRAZ | q = 0 | S = 0 | Stoichiometry = C10H20Cl2N4NiO2 | MND = 6
Ni        5.40095803698785    4.67394351775393    0.00022463995135
Cl        5.50017532244955    2.50567910229425    0.24195477209446
O         4.75780836148519    4.76709542692991   -2.42720863302002
N         3.62194445977471    4.69811879293284    0.63978531989075
N         3.41345763568245    5.48452680245182    1.70066187651123
H         4.17950444981993    6.02853930603892    2.07701639787641
C         2.46271820208517    4.11814678820685    0.35345316319646
C         1.49362111923587    4.56005720646000    1.26630888595856
H         0.46378866194692    4.26915404117682    1.29074764286133
C         2.13807184917616    5.43495654281127    2.11554761299802
C         2.27081756320081    3.15750491895962   -0.76485646063580
H         3.23575606930834    2.80128817532323   -1.11766089415580
H         1.72852881165995    3.62694870021872   -1.58697858468001
H         1.68787235605737    2.30491717404553   -0.42233996720622
C         1.65052086229030    6.21733528932562    3.27822130615730
H         1.86652257383738    7.27590314817912    3.14055080416088
H         2.14298590529145    5.88692248868010    4.19235466192163
H         0.57832353486789    6.08724180010252    3.39160033649329
H         4.94273323199770    5.71603361478767   -2.35283419374794
H         3.80024229771726    4.68291036578020   -2.41919475067792
Cl        5.30196872884153    6.84231974345968   -0.24228632768066
O         6.04225421567574    4.58173194434458    2.42841333527838
N         7.17945421608033    4.64884062568466   -0.63991304362395
N         7.38717406776071    3.86373287369614   -1.70187363269867
H         6.62039520018419    3.32133928701351   -2.07905005441147
C         8.33922895934612    5.22718412317236   -0.35261599350215
C         9.30795789959486    4.78547108823616   -1.26602919131282
H        10.33806578866700    5.07548151429753   -1.28981385909786
C         8.66269982875382    3.91240080647201   -2.11647351568646
C         8.53171953427991    6.18646542181650    0.76676810548167
H         7.56719212950927    6.54532469011631    1.11774308183024
H         9.07072465817888    5.71507374548714    1.58938184715058
H         9.11762145133440    7.03750541497172    0.42611641067556
C         9.14912351346188    3.13112000854227   -3.28037002546684
H         8.93203545225754    2.07258802210495   -3.14406549360378
H         8.65664680901804    3.46334559632654   -4.19382452157189
H        10.22141915607182    3.26020636721716   -3.39398274795501
H         5.85791171546024    3.63272940514804    2.35405689915785
H         6.99955537065143    4.66641611944113    2.42046479109115

