55
CSD_code = TUQSED | q = -1 | S = 0 | Stoichiometry = C19H24B9MoO2(1-) | MND = 11
C        21.77219892993062   22.05965506723658   13.59666972652648
C        18.38579294754794   21.05647439999176   12.18209210070850
B        20.57901235159810   21.09338750333466   14.01429222791566
H        20.74981795716547   20.38958414092689   14.95508680987760
B        18.90543202355758   21.41764139519820   13.66757048250083
H        18.15574232593957   20.97170316850469   14.47904112337405
Mo       20.06191442011007   23.45859870647677   13.97645183735874
B        19.86867251098500   20.32410789132178   12.41082021691492
H        19.77132135602286   19.14929042343440   12.30155152526551
B        21.53941930995178   20.86604715808400   12.42945502258404
H        22.43390167999848   20.09635141673280   12.33742104667015
B        18.53104367856641   22.73521891315155   12.41541791860999
H        17.47651494956141   23.28187095569072   12.34417439085953
B        19.97153301558433   23.13810125123027   11.54198374276623
H        20.02214611690918   24.07367927982212   10.79778157600412
B        20.76391779606902   21.55231366606680   11.07856239179984
H        21.24491827124291   21.29096643102484   10.02496949260242
B        21.59010981204795   22.72212316364515   12.16953661194276
H        22.54522777793052   23.26644800370196   11.70786179306208
C        23.04912401796845   22.11736641496906   14.32797835693761
B        19.03463754981439   21.81233277514758   10.93866289210934
H        18.45091444662543   21.77184093349985    9.91121928868673
C        23.47761448496990   21.08254092960110   15.16799617097339
H        22.85588673988135   20.20932266582389   15.28637999926870
C        24.67520487911433   21.14823950957617   15.85107095888024
H        24.96775383533426   20.33109556691735   16.49805082013853
C        25.50571955334080   22.24841864734846   15.71594220339797
H        26.44131158963970   22.30345814448391   16.25624446757307
C        25.12148951450228   23.27203799418973   14.86742502120109
H        25.76462191120263   24.13382435710347   14.73564846627747
C        23.92322843374730   23.20262381077292   14.18334358759277
H        23.66744718235282   24.00568139100798   13.50649680014863
C        17.12794014470158   20.31959698183278   11.99585881921698
C        15.95295760873058   20.69064953965385   12.65331623891333
H        15.97609355960992   21.52761485001514   13.33486646037536
C        14.77051304330024   20.00792980147961   12.44374157254111
H        13.87309004890144   20.31553899154569   12.96485852906526
C        14.72504852280960   18.93086066737137   11.57329886712858
H        13.79901979477993   18.39536655775863   11.41129615183222
C        15.88038241233090   18.55024848596357   10.91022532034797
H        15.85629411350350   17.71295068824625   10.22412179936875
C        17.06140547354958   19.23660639672574   11.11544237114520
H        17.95469702619216   18.93774947505211   10.58560902277322
C        18.49040214604119   24.06473165975087   14.88656715895726
O        17.56233225075847   24.47883947046585   15.45303401359389
C        20.80604240985222   23.56082252875107   15.78289855319561
O        21.05979177837115   23.33806184343048   16.92292615258053
C        21.42033611127997   25.02471800739949   15.11975208388134
H        20.99970583331136   25.73761349867744   15.84542725843656
H        22.49889483351540   24.93336675682555   15.26755600915350
C        21.02432859929593   25.32355833771073   13.72772116694667
H        21.75826444862436   25.65425871893436   12.99488749737665
C        19.63083270225900   25.66685871032609   13.64035582908457
H        19.27226081154544   25.96001908362514   12.65461439725564
H        19.22357495754029   26.31059287243368   14.42462565632670

