106
CSD_code = TUQZUC | q = 0 | S = 0 | Stoichiometry = C45H56NP3Ti | MND = 6
Ti        5.33135083646858    2.75053290814179    4.77433839744553
P         3.95633470655668    4.80668303520646    5.13701551568497
P         6.48125489643890    0.82958424531627    3.62623077771791
P         6.47776404252576    3.33058513398623    7.14320593233833
N         4.75451697637154    3.07371377799289    2.95088232718343
C         3.49499741365872    3.57076316796156    2.73989030363499
C         2.89569738108668    4.41631583941635    3.70805111760133
C         1.59212339046605    4.86372432466783    3.53766465751520
H         1.14605249526875    5.50320951673880    4.28712017920180
C         0.84289333107614    4.51530775847477    2.42374311629456
C         1.43092565940798    3.68651499764774    1.47174155576925
H         0.86051247646967    3.39346007210632    0.60131707971183
C         2.71959195683512    3.22403261221668    1.62017372960889
H         3.14173415368951    2.56375648201237    0.87453882456957
C        -0.56471314647610    5.00113569646593    2.24700587440675
H        -0.69442558030556    5.45217882256431    1.26408899041666
H        -0.82002934953314    5.73824984924537    3.00483119081377
H        -1.26620835310170    4.17020570401217    2.32593068589652
C         4.75144846576779    6.40648711579463    4.55919765734163
H         5.31763273180152    6.77754787312780    5.42209201789286
C         5.73467675481204    6.08207295960987    3.43634718302739
H         5.19668235986453    5.82286463443555    2.52455021007949
H         6.37418644093207    5.23536012642304    3.72063933587566
H         6.36538540551529    6.94459583712092    3.22109603247956
C         3.75402540612034    7.47198966118683    4.11347174386884
H         4.29241014574372    8.33603993954678    3.72595478636823
H         3.13200813158354    7.81026801933613    4.93873548689828
H         3.11016996481750    7.09048935070873    3.32225540105367
C         2.82140258087522    5.39456291254958    6.49809107284649
H         2.14965293019401    6.17206795175575    6.11586410079587
C         2.00425933294709    4.21214576459453    7.00869391319895
H         2.67331128754586    3.40741960029790    7.32202651219964
H         1.33634441898019    3.83063419809889    6.23849330622452
H         1.39988273715051    4.51186940727411    7.86411529303168
C         3.67235186323854    5.96350724867791    7.63059851307346
H         3.04536477912059    6.19396413245224    8.49080567601693
H         4.18675936209562    6.87563273740174    7.33631111561019
H         4.41995385342541    5.23039259188215    7.93808079208168
C         5.61448800846396    2.79774405588920    1.92292053838693
C         6.58331987350367    1.77274023597950    2.07010934168655
C         7.50166247079471    1.53090935975348    1.05569209565282
H         8.24266270845070    0.75318155776859    1.17909437659820
C         7.49722178656072    2.26081972121125   -0.12329977117813
C         6.54109577498129    3.26250415243319   -0.27079476978116
H         6.52327843556473    3.84725251314719   -1.18011303071571
C         5.62473657274372    3.52888278337531    0.72088941413667
H         4.90417456684215    4.32447353462005    0.58301260593976
C         8.47995402010949    1.97759455837307   -1.22012777957866
H         7.97270651455650    1.54382787423144   -2.08273020833256
H         9.24516485877077    1.28065378194430   -0.88669651266903
H         8.96382020454711    2.89642616434304   -1.54795544593295
C         8.20430526339734    0.14644164321554    3.86034249243832
H         8.48058911088369   -0.43579505386356    2.97411519647173
C         9.18498117267698    1.29768704803064    4.04462574719731
H         8.94568207751362    1.82493223543482    4.96719603082627
H         9.12906872629309    2.00239989942558    3.21478064466460
H        10.20436797922220    0.92027297713915    4.11565251628435
C         8.22008223758424   -0.75657741993715    5.09033378308203
H         9.21200886193112   -1.18333524540589    5.23348152563817
H         7.50594492792625   -1.57303072523076    4.99731724996035
H         7.97211066644839   -0.17584386826928    5.97880786253064
C         5.50279502477467   -0.68514130901562    3.08144138259981
H         5.33279329001380   -1.26332300947372    4.00012069790212
C         4.15018867496985   -0.20567162867890    2.56012265616390
H         4.27572760042302    0.32501296466287    1.61619740796690
H         3.67159663893547    0.46103284339638    3.28038338689494
H         3.48715040539876   -1.05314158598855    2.38918864729251
C         6.18887242439494   -1.56338185777384    2.03972252407754
H         5.50096892358258   -2.34400568441897    1.71658625620919
H         7.07624519291985   -2.04840123898442    2.43855458721533
H         6.46523145928717   -0.97546934784655    1.16595214205587
C         7.16932235829967    4.83632207753710    7.95782772767134
C         7.44363866941732    5.97967333503652    7.21857494541444
H         7.29925667493293    5.95704006540864    6.14553806186604
C         7.90504369450167    7.12549090181590    7.84036558318618
H         8.12436575054000    8.00813444451651    7.25440591913250
C         8.09010731865314    7.14243555509554    9.21241346679368
H         8.45189570761340    8.03636420390108    9.70000304850061
C         7.80967784699833    6.00846215592540    9.95894675354552
H         7.95175301781167    6.02073467742464   11.03058768869223
C         7.34755370500998    4.86431979308758    9.33776665995014
H         7.12786131918446    3.97859519186081    9.91882570453939
C         7.66855026307682    2.15477659207725    7.95331359155082
C         7.19520187451167    1.11678041015876    8.74837216111537
H         6.13421631131881    1.05009800514645    8.95236072057967
C         8.07029422377896    0.18870687236397    9.28561831091206
H         7.69367881073528   -0.61528376473164    9.90295873484783
C         9.42841260757193    0.29002089047232    9.03568497285915
H        10.11211435926137   -0.43673953769321    9.45070715400291
C         9.91122814825125    1.33331923699530    8.26105858014820
H        10.97323624405150    1.42406736673784    8.07865039656795
C         9.03685615824785    2.25907860829145    7.72459547455774
H         9.41640713387650    3.08288635887816    7.13343961092180
C         4.18036408504960    1.39783718113575    5.79579488710269
C         4.73330919947253    0.31288894609991    6.48001866625406
H         5.80367408681553    0.30530840954817    6.68091224171367
C         3.96193946632700   -0.75190514575743    6.91903822626280
H         4.42205175691433   -1.57034229307459    7.45839601177726
C         2.60099320754219   -0.77277999645971    6.66126267428317
H         1.99331208637894   -1.60012833724869    7.00096520704735
C         2.02753489155506    0.26929787839455    5.95352736333049
H         0.96825783691444    0.25165075285856    5.73000460022031
C         2.81072724721784    1.33157027723853    5.52397280616524
H         2.32728447007892    2.12731384965860    4.95414098923505
C         6.97566384664884    3.44530109985666    5.46224141685382
H         7.97013692684695    3.84746600182354    5.23869564502293

