111
CSD_code = TURCIT | q = 1 | S = 0 | Stoichiometry = C54H51CuN3P2(1+) | MND = 3
Cu        0.89314000045471    4.38964975485385    3.50903451777789
C         2.18785810205476    2.93355336233609    0.60146425360936
N         4.19429121374327    5.09339563657153    1.73655290141415
P        -0.21942482315120    2.86153321589265    4.76767917048348
C         2.54573694064200    1.24019476215184   -1.08162741843921
H         2.28553838459961    0.80519210190211   -2.03454415549082
N        -1.70054769174278    5.23539966687563    6.28465991852794
P         1.19231891025356    4.31755499978651    1.25256145405214
C         3.55390366745037    0.68426565972685   -0.31083711387670
H         4.08269266092981   -0.19070349194602   -0.65696215872730
N         1.64639145797736    5.86192836188281    4.42959516625129
C         3.88007919847760    1.25113867224381    0.90678079749460
H         4.67003707605043    0.82385474599177    1.50756252019216
C         3.22025593894473    2.38579083556141    1.37501921147806
C         1.85993525500410    2.34782094652649   -0.61989550728160
H         1.05175934309600    2.75683018250079   -1.20977720724209
C         3.60802916122844    2.93401336035024    2.69022713000926
C         4.06565821843872    4.25439038262156    2.85938567159186
C         4.38499986276909    4.67730244807456    4.15058887034555
H         4.74879362505273    5.67860145357563    4.31656758144678
C         4.28735758046632    3.82566649806962    5.23484564889977
H         4.55425624055554    4.18501562658590    6.21820268379049
C         3.89120001955807    2.51260792508173    5.05566849671060
H         3.83968422879271    1.83212064420667    5.89145132394120
C         3.56745161874156    2.07704732626968    3.78496998427763
H         3.26492569666875    1.05249252863880    3.63200574680910
C         5.15618630412604    4.64361958779834    0.74184954764252
H         6.18703525297210    4.79722178763890    1.08729909204309
H         5.00963187912396    5.21800873134457   -0.17228577187022
H         5.02011017380098    3.59027125132618    0.51918031343938
C         4.38854026016983    6.50367196388640    2.00433036691904
H         3.61079249730342    6.85773313550184    2.67783421706395
H         4.29886313585935    7.04445137747585    1.06281969025578
H         5.37686036219700    6.72592467499988    2.42911516655419
C        -0.40920311422078    4.03059867487477    0.40198854614728
C        -1.32267281534618    3.17052204708117    1.00351176109270
H        -1.09947257700767    2.74748301894303    1.97347683023271
C        -2.52886836369576    2.87613337754882    0.39536028469628
H        -3.22071186818488    2.20230320058037    0.87880715749643
C        -2.84895450879278    3.45931692886976   -0.81948280335305
H        -3.79056654337865    3.23635950590247   -1.29733915544240
C        -1.95989088295698    4.34063898052304   -1.41282720766601
H        -2.21042336344199    4.80839784463453   -2.35320094682022
C        -0.74666473877018    4.62557180928911   -0.81125269063904
H        -0.06573414906926    5.31417694564605   -1.28989654588433
C         1.74841030140383    5.79109475718805    0.34097389018702
C         1.36188700827240    7.02017714115433    0.86598850861228
H         0.80448751009614    7.04030146861646    1.79481325535680
C         1.67641894128995    8.19045033660360    0.20014919893460
H         1.36893927060694    9.14434549839411    0.60306595524950
C         2.38480525480827    8.13893202854643   -0.99008566812922
H         2.63198079961975    9.05104419320680   -1.51155688734907
C         2.77393514522963    6.91564819483545   -1.51311905643947
H         3.32214129840606    6.87794527262352   -2.44301066154871
C         2.45518114264909    5.74036408371640   -0.85506628595850
H         2.75022964694180    4.78689432431251   -1.26898178181221
C        -2.00381545236762    2.63252793473762    4.45990794490430
C        -2.56947775094758    1.36078305737407    4.53110145838213
H        -1.95764508125906    0.51985995903800    4.82640086411038
C        -3.89934802434676    1.15802331587822    4.21387308396502
H        -4.32431391557806    0.16836126090270    4.28379672919407
C        -4.67656838229573    2.22461090102981    3.79208274737277
H        -5.71136727086988    2.07121523673870    3.52628441964116
C        -4.12231449067858    3.48808692478329    3.70703842042349
H        -4.72660406599858    4.32290873265964    3.38210025882463
C        -2.79177482913612    3.71712157336836    4.05214299588202
C        -2.25849396680661    5.08907040955095    3.91988890002712
C        -1.73436538951748    5.81504048005826    5.00634038918150
C        -1.26149059562821    7.10628617284920    4.76355301106961
H        -0.88161941472530    7.69851668815476    5.58063695844811
C        -1.31391401646485    7.67196068160435    3.50364288685551
H        -0.95535866181118    8.68097262072116    3.35407214768525
C        -1.86754995838208    6.97075378136722    2.44813261133252
H        -1.93790586086683    7.41294575252731    1.46646074438660
C        -2.34780414697825    5.69435699024173    2.67112302410814
H        -2.79618337230579    5.14460165408376    1.85807628004163
C        -2.99334458749905    4.88908048369489    6.85262385217101
H        -3.52187399061832    5.78209884019867    7.21149133870877
H        -2.83712577190329    4.21783940585552    7.69661825024281
H        -3.61805386797608    4.38987973449904    6.11914291889536
C        -0.88261496950933    5.90072984242439    7.27749791444781
H         0.11911079577472    6.05829407706930    6.88152654646192
H        -0.80768213980967    5.24925161050254    8.14720632933671
H        -1.30609662426454    6.85839022862323    7.60952925473916
C        -0.04494525205052    2.86097549676202    6.57893890894553
C         1.14082098362805    3.38220431728007    7.08615334321196
H         1.85983862359406    3.81421041469287    6.40136892389172
C         1.39351549773225    3.33897563375618    8.44507523569959
H         2.31803894219479    3.73629303392600    8.83720967852912
C         0.45838421830802    2.78419037390141    9.30450832974695
H         0.65319493290649    2.74909338928931   10.36559700973661
C        -0.72845314696924    2.27349528012219    8.80207305772563
H        -1.45550635988535    1.84089449248399    9.47360842641855
C        -0.98297624642549    2.30494817658683    7.44197496898373
H        -1.90356630086863    1.89558695869092    7.05128169485069
C         0.42388776353778    1.18460002481808    4.39221891340886
C         0.68760864297045    0.23123700191315    5.37203572144667
H         0.52532344640460    0.46059091022687    6.41486027939612
C         1.16241684566308   -1.01942880682102    5.01718828097471
H         1.36336322491377   -1.75009532665438    5.78637038105698
C         1.37741548286280   -1.33791366413173    3.68643830411017
H         1.74258989974360   -2.31679088682448    3.41587335458422
C         1.13322856834337   -0.38987562652189    2.70619293466780
H         1.31441515934812   -0.61883413459086    1.66649159941524
C         0.67069688266345    0.86357497300303    3.06013032261213
H         0.52385883196042    1.60964897375574    2.29157019396396
C         1.84728837751984    6.95068770918563    4.73366024740068
C         2.13486929309142    8.28819438694467    5.13040667690023
H         1.96575075281398    8.40345126217970    6.20135634130157
H         1.48690157269895    8.97620930165993    4.58731178113144
H         3.17544001896421    8.52474823445234    4.90627500196438

