64
CSD_code = TURDUG | q = 1 | S = 0 | Stoichiometry = C27H35AgP(1+) | MND = 3
Ag        2.11362392284784    2.26228759080571    1.90179243753880
P         3.44997377598290    4.32513755475523    2.35543234942424
C         2.39556104233744    5.81583444786910    2.40063182877814
C         1.00344343599993    5.67710360375280    2.33507584954241
C         0.19565676180367    6.80462483097357    2.45229352684161
H        -0.87669164682251    6.68430999625771    2.40779566297378
C         0.74732087827843    8.06227719453607    2.60885863156943
H         0.10639533137665    8.92545180076516    2.69573265310075
C         2.12428095901227    8.20683254036244    2.64349278913335
H         2.56560878783169    9.18557581085346    2.75137176238677
C         2.93684618797924    7.09327228985365    2.54607380077263
H         4.00599598483901    7.22141792183870    2.57930919834692
C         0.31627070277105    4.38362655956506    2.10501814480313
C         0.20019542551162    3.88083950681813    0.80204291135676
H         0.63870526707267    4.43479642199990   -0.01856303108462
C        -0.59249438916267    2.76796511812175    0.54849543387692
H        -0.72745041286019    2.42811674509719   -0.46834590169886
C        -1.26654546570859    2.14178816413126    1.58818246705541
H        -1.90988224661014    1.29871870384528    1.38460273104603
C        -1.14079576882887    2.62261028123908    2.88167467917071
H        -1.68631237060687    2.15486759343334    3.68795300591685
C        -0.35822725498262    3.73869176493024    3.14139050342765
H        -0.31526153418118    4.14939528188904    4.14000028712714
C         4.76262539304673    4.64167992094634    1.02168975484037
C         5.28498125872148    3.25818528522501    0.62090101267682
H         5.93453732738543    3.34526999998780   -0.24769918739740
H         4.44926601175962    2.59783726329996    0.35803088931803
H         5.85507842760835    2.79770026991400    1.42359013880408
C         3.98997045517004    5.22929597612143   -0.16132660698035
H         4.63038501845331    5.27345070994495   -1.03973034891362
H         3.63458535232009    6.23484797435730    0.05185694101870
H         3.13021574673782    4.59696409920719   -0.39761257382039
C         5.94654177070472    5.53301905205173    1.38236302781587
H         6.60853882715403    5.59635184447158    0.51975881577906
H         6.52130044858550    5.12077013979379    2.20714075476312
H         5.64159195703444    6.54524956224481    1.62815816852644
C         4.14643119731251    4.25555095503863    4.11457341671813
C         2.93061563064831    3.86337451153453    4.96059378772747
H         3.23077939733977    3.68747310381987    5.99136694619541
H         2.46907827649743    2.94567008430473    4.57206093822592
H         2.18616967939966    4.65805824146097    4.95467380373186
C         5.17593861355696    3.12762988889298    4.15901135636298
H         5.40551842998548    2.87544324010069    5.19262130000151
H         6.10479282792577    3.41834592409836    3.67548105620084
H         4.78127299483242    2.23598077775463    3.66521476299102
C         4.73863562796751    5.54638503425064    4.66971807438107
H         5.11313284955469    5.35345863756252    5.67389497368695
H         3.98493760784100    6.32612578852244    4.74208443842803
H         5.56922120228500    5.90808341321920    4.07242063651154
C         2.32858643251281   -0.09722393513000    3.65856074204268
C         1.25021608560721    0.02831568506655    2.78026904772039
H         0.24290905989468    0.01052385550704    3.17323627175061
C         1.45251195679545    0.04279104177644    1.39897888380422
H         0.60339839560805    0.00539851608177    0.73081129948874
C         2.74712048310551   -0.04283371683542    0.88432934363628
H         2.90307278089756   -0.10945455335467   -0.18335046920789
C         3.82361466407394   -0.17714284759259    1.75685232680269
H         4.82067033685087   -0.30702585356472    1.36275326163536
C         3.61343370714705   -0.20988799684173    3.12597168550938
H         4.44801309159488   -0.37073893711975    3.79287294428667
C         2.10304223107320   -0.21485990284205    5.13324044586815
H         2.93213255425124    0.21153152388728    5.69261470206502
H         2.02745968602329   -1.26830783040980    5.40402604682852
H         1.17975883086317    0.27457152954806    5.43368546877009

