63
CSD_code = TURFOC | q = 1 | S = 0 | Stoichiometry = C24H35CuO2P(1+) | MND = 4
C         3.90283461842474    2.75242471335077    1.96073968067835
C         3.73113421045539    1.50964975574154    1.35426717957754
H         3.90939042998743    0.60604050405916    1.91657514528454
C         3.32350616796545    1.41494815424793    0.03654693096136
H         3.19015732094846    0.44442402507059   -0.41591178108042
C         3.09713520475674    2.56479082265346   -0.70194176123594
H         2.79334894721990    2.49623139697599   -1.73476280289874
C         3.25034166887324    3.80437464349634   -0.10870329313766
H         3.05433606459285    4.70446971192703   -0.67251035609038
C         3.63618903283857    3.91313465893962    1.22344921745143
C         3.70998435181211    5.26283535368410    1.81973686334544
C         2.78428472227951    5.64296769579828    2.79767139453504
H         2.00854208733685    4.94602190886302    3.08487742527594
C         2.78223030732785    6.94129032356050    3.28935588171529
H         2.02349304416183    7.25286652742940    3.99233365953570
C         3.72433269970482    7.85820025153016    2.84169156800179
H         3.71053377323863    8.87221447399972    3.21327292248902
C         4.65042094962137    7.48037751245507    1.88019427827149
H         5.36912935397267    8.19705169398466    1.51210936381193
C         4.63520041163803    6.19468540773422    1.36386821909635
H         5.33836697851363    5.91332424609887    0.59473329487906
C         3.84182388683310    1.48096126896115    4.58226846384247
H         4.02860841975331    0.52831099412725    4.07775252401713
C         2.33555070204781    1.73903193697816    4.66812264828576
H         2.17939811247053    2.73345308243457    5.10343124937454
H         1.89785089412497    1.73541817140822    3.66601278198820
C         1.65278826611811    0.69215561027195    5.54237862175203
H         0.58446177290287    0.90453206838005    5.60268803084560
H         1.77149744896706   -0.29378070847232    5.08841446361003
C         2.26586263972639    0.68611503087065    6.93883022281644
H         2.10123635431423    1.65635921846659    7.41253922930586
H         1.78234289001982   -0.07383836770894    7.55313420839404
C         3.76308882756466    0.40908569061245    6.85619137216021
H         3.92503879872948   -0.58427861002409    6.43246760699216
H         4.20143653394206    0.42042994996968    7.85505982161389
C         4.45670570810366    1.45086955135084    5.98238028654623
H         5.52355953215590    1.22448725807435    5.92241759867072
H         4.34427383809998    2.44291001466930    6.43553409151001
C         6.38011491595163    2.49918757443846    3.40601737903167
H         6.81628505439915    2.55035712703591    4.41372384660847
C         6.70045703500984    1.13745027339626    2.79667539565021
H         6.27480657702349    1.07452339933639    1.79327705778990
H         6.27866563651002    0.33495732431900    3.40467963696881
C         8.21626956242913    0.96196565501522    2.70606776044574
H         8.64574722304599    0.97681025853451    3.71032134105634
H         8.44342969218159   -0.00750886202904    2.26095609879226
C         8.83985370372737    2.07478138087133    1.86948651996434
H         9.92157796386697    1.94440225183172    1.82810459278484
H         8.45684472344510    2.01962363645955    0.84833921597558
C         8.50588902776526    3.44074784287696    2.46195657942995
H         8.93229589817300    4.23088531792146    1.84172859486334
H         8.94567481307077    3.52157175936740    3.45877345959690
C         6.99285128710911    3.61390879422425    2.55536885978557
H         6.56280047630011    3.57513028882552    1.55117885552648
H         6.74163073185013    4.59024263414497    2.98730068823769
Cu        4.20146965785452    4.83577170421056    4.69043918050136
H         5.24850793749897    7.18772017118932    4.34778362743510
H         3.65379904648902    5.88692128152840    6.94243153542777
O         5.40294107515685    6.57147310381281    5.07962207542822
H         6.34060024655145    6.35618670687883    5.09903724476550
O         3.07359404708507    5.36851914954181    6.37290536202322
H         2.32137043506880    5.92152017213911    6.13764516331561
P         4.57780626083372    2.89850511215068    3.64946367642300

