79
CSD_code = TURFIW | q = 1 | S = 0 | Stoichiometry = C29H47AgOP(1+) | MND = 2
Ag        7.71762568151229   22.76775231781485   10.45079278923543
P         6.02635296145400   22.83099980360082    8.59410431546014
C         5.32204614687006   24.51987706111776    8.48171518769199
O         9.02180616672633   21.12040413062398   11.59950824639067
H         9.13969615970411   20.18484349562426   11.42198208908055
H         9.58966247669060   21.34249837523840   12.34332403626314
C         4.22003113062204   24.75123238487276    7.65811574689579
H         3.83622940500223   23.94888391748900    7.04943069854754
C         3.60297682463078   25.98632279102999    7.60422500533720
H         2.75605505918670   26.13801724840881    6.95304405886464
C         4.06796987347737   27.01802285904351    8.40109749894791
H         3.58223808488992   27.98113112096319    8.38665687937171
C         5.16351464695670   26.80784370190530    9.21675207309947
H         5.52429480528853   27.60944456221661    9.84355881201878
C         5.81838081115290   25.58014872213996    9.26105614721807
C         7.02336240353883   25.46823480879583   10.12920162996019
C         8.26032747241596   25.96762007304518    9.69389640613068
C         9.37442468545596   25.82045874865626   10.51435043971895
H        10.32296945845573   26.21316690688787   10.18312358515826
C         9.30158662706311   25.22546799653303   11.76346458957696
C         8.05277316462067   24.81083912969557   12.22027426289695
H         7.95002827536746   24.47675151228230   13.24192439657140
C         6.90522149154849   24.95090969963777   11.43633559694521
C         8.39918496506906   26.76927593427029    8.41925519319868
H         7.54053862838265   26.55808092712962    7.77355642059790
C         8.37032226832279   28.26244756069358    8.77037203369422
H         7.43362750643838   28.54058033866473    9.24411523671274
H         8.48632624507701   28.85506964101914    7.86660336792789
H         9.18282306028725   28.50691190755786    9.45070890461158
C         9.69044788453962   26.46994798902753    7.65068180848783
H        10.53793841610354   26.97669292059513    8.10463992792638
H         9.60073077247060   26.83413329945697    6.63039751788032
H         9.90414481878089   25.40541374278875    7.61881123740412
C        10.52759604884205   25.12545668483062   12.63725256806767
H        11.38234324536215   25.50426189853641   12.06704405071362
C        10.36632114969174   25.99606449457829   13.88583840237316
H         9.56784424705649   25.62467473923240   14.52374481983265
H        10.13355760304932   27.02068701104147   13.60563233480884
H        11.28862611564307   25.99794592993927   14.46106889510829
C        10.82262086842424   23.67382165521639   13.02096559980834
H        11.72672605347132   23.62366851081639   13.62276221882717
H        10.97810339242618   23.07640300129312   12.12273085106745
H        10.00415223705567   23.25637957345795   13.60566856923057
C         5.54797303888006   24.70966184677410   12.06023633142066
H         4.80669365019482   24.63445222684562   11.25868580769681
C         5.18287257827393   25.92165333812492   12.92407036536483
H         5.91571144978500   26.06557189821901   13.71449716988890
H         4.20664121644638   25.77485560642682   13.37878141492100
H         5.14885829928073   26.82459307730181   12.32026436385523
C         5.49989159173721   23.43103733844901   12.90008555267737
H         5.95341367184819   22.58900382734583   12.35782858450571
H         4.46912121542668   23.17632563116332   13.13413601564013
H         6.02632493853978   23.55921499781115   13.84208348023097
C         6.86939647793192   22.54727058439835    6.92258685843069
C         7.35193824783812   21.09853055568795    6.86847866963645
H         6.53506939674583   20.40107484593832    6.70796636381949
H         7.86577305612736   20.83663417433096    7.79755161969610
H         8.05514727028796   20.97688952720879    6.04657694709419
C         6.05377570209931   22.90467824982383    5.68429004383765
H         6.66812295646681   22.73424615633208    4.80142925940279
H         5.77092440935977   23.95465319230613    5.69304471902039
H         5.16073150291304   22.29738286736082    5.58490294118037
C         8.09095988480978   23.46470681393624    6.97995609067945
H         8.72412217967136   23.30768621636716    6.10906949969657
H         8.68507291811368   23.25909372499337    7.88000546197249
H         7.78055684731547   24.50551285158377    6.99320111471915
C         4.55134171279924   21.64321875314716    8.83780295808182
C         5.14776518139158   20.41031562341043    9.52826317067119
H         4.34939264543611   19.75227063776312    9.86498748069654
H         5.73981320842808   20.70435585330333   10.40297133109927
H         5.78606150346383   19.84564640059039    8.85403254922414
C         3.57880815257688   22.31621137925494    9.80701779690210
H         2.79188643228481   21.61557345683244   10.07972024589599
H         3.11028832133064   23.19221799606186    9.36496398779931
H         4.09550051639877   22.61462371065949   10.71582196056672
C         3.79131969643873   21.18415301849554    7.59556759155118
H         4.43405212916410   20.66306833079701    6.89259431584119
H         3.29522449032701   22.00469815052026    7.08645650525953
H         3.01640417075273   20.48492801266595    7.90758698134840

