104
CSD_code = TURHUJ | q = 1 | S = 0 | Stoichiometry = C44H51BN7Zn(1+) | MND = 4
Zn        0.49780266537359    4.48045523473774    0.23004853718277
N         0.00386861271645    6.19471309639531    1.01342040392089
N         0.03307051493990    6.16222368817437    2.35972186896725
N        -0.74885288086474    3.42215538253695    1.27876684253133
N        -0.70703842694275    3.79115350648511    2.57723844776848
N         2.02605121203909    4.16582651294385    1.38812105473710
N         1.72748182633808    4.38424060211784    2.68420465713137
N         1.05006809117526    4.75478601749529   -1.70877562784548
B         0.30710104457180    4.83115249217147    3.09030788680593
H         0.22432635942949    4.96181527000862    4.25444668804375
C        -0.14879450984352    7.40200381002158    2.84500690416401
C        -0.29240398928764    8.26293323692857    1.76832281277073
H        -0.46637606522704    9.31821195018211    1.80328816733997
C        -0.19724894267658    7.45942637568629    0.63115929810075
C        -0.17808007114046    7.72949177577790    4.29175843229835
H        -0.37430296096788    8.78968130624911    4.42149517550080
H         0.77428140803128    7.48874692444035    4.76028185078410
H        -0.95590038855632    7.16247002021766    4.79876256948289
C        -0.27875939704552    7.81344298609030   -0.78000879406705
C        -0.96271289365430    6.99246134992505   -1.67270736322042
H        -1.49567330482956    6.12608812969276   -1.30122714156508
C        -0.99713865907507    7.30268911121160   -3.01872339666417
H        -1.53862395874136    6.65933926940051   -3.69835734078066
C        -0.35965241554256    8.43525731956126   -3.51161359202054
C         0.29940829949861    9.26476652459331   -2.60972781264095
H         0.78631490309446   10.16111119216501   -2.96144048012955
C         0.34035920655176    8.96322962200731   -1.26354621528327
H         0.86421760472541    9.61297690334905   -0.57853477994814
C        -0.41113186870019    8.76432871691828   -4.98156031414200
H        -0.90227393689781    7.93281561178715   -5.49951789125736
C         0.99352856965523    8.92826410041279   -5.56566949168074
H         0.93455536336141    9.06335739498701   -6.64272515916801
H         1.59856920253725    8.04771356762728   -5.35775653491723
H         1.49236549978419    9.79621200405112   -5.14318265750023
C        -1.24243820587984   10.02881190777657   -5.21171268467815
H        -2.24578056626885    9.90202200812976   -4.81167060249273
H        -1.31781864241781   10.23884575392231   -6.27558863060853
H        -0.78418049283276   10.88509727358199   -4.72367017523607
C        -1.65655755319611    3.12934836765737    3.26083833535345
C        -2.33310428498672    2.31187463168435    2.37087480677374
H        -3.13591636707887    1.64093300839932    2.59476128620267
C        -1.72518277457838    2.52005882735491    1.13189931748851
C        -1.89691103199869    3.28371111263532    4.71662936153078
H        -1.00802748336682    3.01589204987320    5.28399409115343
H        -2.71475503141621    2.63680162833114    5.01999206919834
H        -2.15469930156941    4.31300402598791    4.95738770294325
C        -2.00226254604240    1.88823850437816   -0.14914142471593
C        -0.96480794734267    1.62612038697403   -1.04034058168322
H         0.05298878560365    1.86637931036938   -0.75632467331480
C        -1.21936564084723    1.01022962703899   -2.25160532791908
H        -0.39921695245532    0.79885554120924   -2.92440569436914
C        -2.51008556714371    0.63797320425221   -2.60957192554035
C        -3.54192428071140    0.89755322132368   -1.71208686910317
H        -4.55256314638186    0.61310349567572   -1.96071095306362
C        -3.29675599823641    1.50931355636723   -0.49959720578493
H        -4.11116477803687    1.70689665615547    0.18053641141632
C        -2.77310169195825   -0.04369308383803   -3.92745380795446
H        -1.82281836361351   -0.12272893206211   -4.46760661623455
C        -3.74321186018847    0.77409726207877   -4.78328700314559
H        -3.36515635248055    1.78360315413188   -4.93356773331942
H        -4.71897248455759    0.84000624756032   -4.30958527003589
H        -3.86831030833108    0.30399565233790   -5.75539742675996
C        -3.31042328592149   -1.45858753134571   -3.70061595592608
H        -2.61792582109005   -2.03529472306593   -3.09142296518580
H        -3.43808428234698   -1.96635908306911   -4.65327941097413
H        -4.27230034031212   -1.43195967692161   -3.19549473744934
C         2.83711076511310    4.24626830142396    3.43000616904283
C         3.88685969190920    3.93643767583625    2.57931051678294
H         4.90481810405922    3.74834710906236    2.85028103887299
C         3.33078453263329    3.88840474179911    1.30069626434424
C         2.87148974556706    4.40550221251587    4.90461985821408
H         3.87383350003386    4.20179808388261    5.26953123392098
H         2.17633421481104    3.71717488383383    5.38059941377057
H         2.59268253439862    5.41776402071350    5.19066240149122
C         3.94957999342380    3.61168505709090    0.00983390329775
C         3.29685658971098    2.81190143176683   -0.92410189078830
H         2.36859339634805    2.32782489368237   -0.65183957775902
C         3.85188321977633    2.59487756175683   -2.17040221616260
H         3.33453576763889    1.96532834212131   -2.88097773852142
C         5.07168228176234    3.16180357966395   -2.51991723782535
C         5.73095274845071    3.94001055823558   -1.57324050415026
H         6.68823363340698    4.37760472080221   -1.81101217421783
C         5.18374452448054    4.16248183461156   -0.32562111478738
H         5.70550850971379    4.77569621731492    0.39384479085430
C         5.66874253956840    2.91695581127480   -3.88200444962710
H         4.96838868396675    2.29936975876638   -4.45547750346742
C         5.87277734772176    4.23277315061935   -4.63594258709215
H         6.24640793226071    4.03312133264446   -5.63703429101680
H         6.59309592962560    4.86561983762511   -4.12471174525569
H         4.93290243084343    4.77508557172286   -4.71775933617288
C         6.98898264607965    2.15280773755245   -3.76016957345442
H         6.83978694061764    1.21971084514912   -3.22188373375840
H         7.72992361770085    2.74236153050510   -3.22688656612664
H         7.38016985476178    1.92339290971949   -4.74805556505645
C         2.05099665384517    5.61917005452049   -1.86969749560627
H         2.45559724460900    6.06042146186336   -0.97047051645513
C         2.56517965855855    5.94811607956310   -3.10908577143857
H         3.37683979953298    6.65338494576332   -3.18375471706898
C         2.02123213738662    5.35413563326283   -4.23733799755501
H         2.40085708781748    5.57938050285997   -5.22251071988254
C         0.97384041856034    4.46262151339411   -4.07186451077112
H         0.51353557332854    3.98024232721584   -4.91916244062222
C         0.51854995509472    4.19555625094583   -2.79347998209163
H        -0.29976132117354    3.50827712737284   -2.62793634504582

