90
CSD_code = TURHET | q = 0 | S = 0 | Stoichiometry = C31H47BN6O3SZn | MND = 4
Zn        0.03234263324974    4.45705232971125    6.00507275225375
O         0.09390267286533    2.44624838442369    5.49088209947954
N        -0.20370646824024    6.02481745446590    7.27835457756450
N         2.03008525545219    4.56017725379522    6.36948469144686
N        -0.11951239058077    5.47141901159521    4.24855101122295
N         0.55288201664454    7.03916796389470    6.81024663018746
C        -0.82488387825480    6.45144430847089    8.38100952488359
C        -0.46208282584853    7.78152419945381    8.61170357272663
H        -0.78131094989598    8.42241099946109    9.40633203967612
C         0.41207193366130    8.11791294350352    7.59830751542818
C         1.09500142962803    9.42099277459011    7.38273028221386
H         2.17567942709554    9.30410369881260    7.43405710599955
H         0.84397864822145    9.83251443837488    6.40730708334249
H         0.78114948274252   10.12219782935202    8.15120867210253
C        -1.75209668813595    5.62658424219831    9.23259584913984
C        -2.01367897579407    6.34336892399324   10.56404473071959
H        -1.08130014248011    6.54414678101372   11.08694486577415
H        -2.54038042541941    7.28184596543776   10.40820450071307
H        -2.63170063048314    5.71254423983643   11.19896278280481
C        -3.08484229527823    5.44718151680486    8.49630963627689
H        -2.92504173331573    4.89496020715553    7.57668859031264
H        -3.78092701856328    4.89265185943370    9.12185291507045
H        -3.52246456570268    6.41553884137229    8.25924998973962
C        -1.12125142141755    4.26354910587689    9.52797592022708
H        -1.01090066596761    3.68160383761173    8.61885905982945
H        -0.14379589064587    4.38994077399353    9.98895610538843
H        -1.75412164775808    3.69981534531762   10.20966352723421
B         1.47077100650596    6.89018765730670    5.59356857763148
H         2.07701102448073    7.88649941025886    5.42861210968984
N         2.44083087783595    5.73306249449905    5.84455347084547
C         3.11505202807747    3.83593244551782    6.65236474587383
C         4.24825883278094    4.55786047706395    6.26505994175079
H         5.27347630760945    4.26218158159883    6.34301673428985
C         3.78153426399151    5.75421399187666    5.76024296713788
C         4.57173618089940    6.88422726346370    5.20421120638645
H         4.24971569325028    7.11348643145973    4.19055274700897
H         4.44896988290495    7.77986577455880    5.81048208425239
H         5.62419095934928    6.61438067045062    5.18763239192206
C         3.11411325538630    2.49376933576140    7.33230197667135
C         4.44773047414168    2.29021212707243    8.06606687194260
H         5.27604801972852    2.21444128155303    7.36627886067754
H         4.64176639786809    3.11284449567794    8.75094992700397
H         4.40865835897765    1.36733566115974    8.64025507227678
C         1.97798325645949    2.42091290519434    8.35328908324119
H         1.01157629700291    2.44657675232160    7.86030183503546
H         2.03774099634398    1.49019144890694    8.91306171712877
H         2.04347077240824    3.25178726548105    9.05289073313140
C         2.94996314414697    1.39330095720116    6.27750876673112
H         3.75741263684542    1.44004682536503    5.54861664731408
H         2.96450798234550    0.41653241379659    6.75565145970720
H         2.00200079539156    1.51861764098244    5.76429145807118
N         0.62501702275547    6.59009452419510    4.35348011471978
C        -0.71556696001029    5.49420152538153    3.04961573767889
C        -0.33798171950555    6.66030154771887    2.38206928641426
H        -0.63447457278439    6.98540913965682    1.40721836061239
C         0.51184318729848    7.32978814034815    3.24043567751248
C         1.19085162043381    8.63267503387198    3.01428274043518
H         0.89866881130304    9.35622117427402    3.77244182881464
H         2.27222443045747    8.51961498727036    3.05452334234189
H         0.91384767850697    9.01720448888497    2.03635655193337
C        -1.64172712898041    4.43210587033936    2.52245955961017
C        -2.09425975871901    4.77417934484066    1.09724601543541
H        -1.24374212381354    4.84644191914275    0.42336996283350
H        -2.75146388495720    3.98790101010278    0.73193543426429
H        -2.64319927001151    5.71263171125110    1.07488767266200
C        -2.88116566238620    4.35904278238653    3.41999336065714
H        -2.59802186621435    4.15471313970151    4.44706036501400
H        -3.41818928426732    5.30582569102631    3.39077245989044
H        -3.54709477621461    3.57004375093043    3.07579054189162
C        -0.90546666315421    3.08953345892920    2.48646272664266
H        -0.51039500442830    2.84014038986341    3.46544279829816
H        -1.58264541038049    2.29825198150806    2.17032272598225
H        -0.07594196690721    3.13907913912092    1.78297515763697
S        -1.19077672817761    2.23586035541229    6.18835701903649
O        -1.78329624704057    3.58258947981474    6.34080541626913
O        -1.09178755214210    1.49396625278915    7.41348606472900
C        -2.25334421641783    1.29165685849292    5.11041476529515
C        -1.70623743162179    0.30928455588842    4.30868903161372
H        -0.63798701604358    0.16087314409670    4.32094456863557
C        -3.61571975044681    1.51186195579811    5.12803576187746
H        -4.01208384335835    2.28197397186627    5.77033307359831
C        -2.53358226220767   -0.44601950591057    3.49600862920804
H        -2.11096232229568   -1.21256658297874    2.86269502208619
C        -4.43940623191953    0.75299041658291    4.31401201842957
H        -5.50557828065545    0.92807324648308    4.31637632260750
C        -3.90824933856343   -0.23071908558691    3.48671775776208
C        -4.80098486673913   -1.06458897678796    2.61893197641447
H        -5.72154390007892   -0.53577677677844    2.38473879296159
H        -4.29993114792384   -1.33340839635219    1.69191950113460
H        -5.06365989291866   -1.98693420203524    3.13737443958097

