48
CSD_code = TURJAS | q = 0 | S = 0 | Stoichiometry = C22H18Cl2N2O2PdS | MND = 4
Pd        8.21992401624953    6.89525837627720    6.57378521025351
S         7.58296894292957    6.59309458048996    4.46314402456714
Cl        8.03433872405950    4.67266504275076    6.77387621224655
Cl        8.75758432598765    7.19867215847425    8.72191660939244
O        11.73771824309536    9.42342019272544    5.51102380708034
N         8.25572830030385    8.92841919613471    6.37057206076520
O         7.47066789607485    7.83049056236681    3.69266140890980
C        11.89665204163733    7.21581034627878    5.59241448000222
C         9.33932696435092    9.61195502260703    5.97611663154406
N        10.59344877383430    7.53513768158314    5.80135535920557
C        11.77581306130116    4.77753131704670    5.81627619137332
H        10.72332673082181    4.87971247462208    6.05934931145470
C        12.51468242482125    5.93730113041953    5.56563203496593
C        12.60906301574041    8.39041028059293    5.40553546318264
C        10.54312847511634    8.84189021958391    5.76022948171208
C         7.12871997537956    9.58563435596899    6.61085308741346
H         6.28654064761758    8.98660507528772    6.95420069882754
C        14.00298476475104    8.40316091986842    5.15154301954638
C        14.72303336742069    9.59075719246927    4.97176142464971
H        14.19284611027084   10.52935395703036    5.03137721358975
C        14.64581813462410    7.13633988284616    5.08959337905371
C        13.90329171460822    5.90217201682618    5.29711665408768
C        14.49862015589388    4.63210257093974    5.26207226510208
H        15.55236774856845    4.52970031173252    5.05756194551490
C        13.76327410018552    3.49060955603601    5.49094019091581
H        14.25548076612352    2.52957978720858    5.45759508220058
C         8.13433454240973   11.67580783235762    6.04257555188142
H         8.08285369523193   12.74613155079757    5.91399337718826
C        12.40039460909459    3.55484909905795    5.77853790900321
H        11.84462995480126    2.65167017526824    5.97696520913510
C         9.31182964126969   10.99612278394502    5.80123434800071
H        10.20646175437977   11.50649843392411    5.48218304180517
C         7.02031015433439   10.95759827851373    6.45851107435330
H         6.08535598520693   11.45264990195233    6.66544683521889
C         8.65563320923945    5.45947404745620    3.53085788052058
H         8.27732654075830    5.35819820480478    2.52042800979788
H         8.65564307229564    4.51514052592922    4.06392884783537
H         9.65255092947166    5.88872496289589    3.52259091791343
C         6.02064760501528    5.68102535651126    4.25311820757017
H         5.22902022732987    6.27589420042796    4.69888340228794
H         6.13065851471103    4.73986130436673    4.78120517430772
H         5.82888297293098    5.53421289927496    3.19674005046907
C        16.02461835904499    7.14689043012030    4.83499544499375
H        16.56691173463794    6.21727901704543    4.77594168679184
C        16.07334765094383    9.55224215297407    4.72855214208003
H        16.63122359372199   10.46616186653996    4.59231174760879
C        16.72118979628780    8.32071523166746    4.65962759117159
H        17.78352603503733    8.28696753606889    4.46856830258537

