52
CSD_code = TURKIA | q = 0 | S = 0 | Stoichiometry = C23H24I2NPPd | MND = 4
Pd        1.52686021061800    2.40939331903513   16.43845677696458
I         3.25130911719794    4.21736036431230   15.60659964507524
I         2.81508708233688    0.33533793419224   15.57187868619455
P        -0.42167335132662    1.37419491290206   16.16228253896480
C        -0.21034913645443    4.84055065191807   16.72991922798489
H         0.60173032237644    5.30939510495990   16.16908066879711
H        -0.73083602419147    5.62325358611771   17.30276489451249
C        -1.20222118116062    4.07380214551876   15.83332573106272
H        -0.75231650659225    3.83175437767411   14.86359560308994
H        -2.09718121770920    4.66560350337726   15.64223054703832
C        -1.53036891890099    2.80096248267829   16.64060049501869
H        -2.59169586164233    2.54445478686256   16.64147032941155
C        -0.95842146132168    3.13323609750613   18.01325951720020
H        -1.60582527515103    3.82251068496803   18.57761742519737
H        -0.77598355321091    2.24243462799655   18.62444464845620
N         0.28567767141830    3.80390956069729   17.63349013959285
C         1.07504078979152    4.24193188667299   18.79129312826582
H         0.45606993212614    4.85507005941917   19.46367980542786
H         1.91574746448194    4.84957908278099   18.43811279223193
C         2.66999558973132    2.29436219880946   18.99754750478220
H         3.34338488564783    2.75237715673083   18.27093792623908
C         3.01006370600431    1.05701512242567   19.53018506930784
H         3.86475370715201    0.52535799339602   19.13711362602276
C         2.25977056581401    0.51108336805226   20.55860024747510
H         2.51943183025981   -0.45614327743140   20.96189377329481
C         1.19197898251050    1.21866400316569   21.08378475280691
H         0.62048943740148    0.81105883871285   21.90466386214338
C         0.84244880993125    2.44735605284917   20.54937578759668
H         0.00114071101085    2.99070785636319   20.95900255952294
C         1.56254265682278    2.99159999847527   19.49210839154433
C         0.07459800399304    1.76962473072883   13.51533942451320
H         0.84051208295341    2.45726866106782   13.89190807705855
C        -0.06655946526475    1.58760325077193   12.15343388264044
H         0.55262821500403    2.14715518778965   11.46877621426825
C        -0.98722973250850    0.66925704899140   11.67377057498757
H        -1.09175579518389    0.51799677290178   10.60998996060108
C        -1.75576819089529   -0.07351802160483   12.55507887428697
H        -2.45492166221942   -0.80536549663484   12.17821790488940
C        -1.62483395319029    0.10514879166376   13.92091314038990
H        -2.20622821600073   -0.49667171124463   14.60394535070800
C        -0.71925183437990    1.04181686940027   14.40581537988827
C        -2.43386959749058   -0.31183587920908   17.19157513725590
H        -3.14473144001371    0.23977856808984   16.59104011002793
C        -2.86901362814420   -1.33990786149642   18.00667018857416
H        -3.91819570329977   -1.59604038631444   18.03099054208709
C        -1.96569018473150   -2.03841650731802   18.79348611893249
H        -2.31501308369998   -2.84039275258749   19.42641678915189
C        -0.62155544194099   -1.70591943334613   18.77416940104138
H         0.08159176775460   -2.24280166735885   19.39238972483897
C        -0.17797881254292   -0.68120912888068   17.95851383936174
H         0.87178330935379   -0.41025172561216   17.94153844393134
C        -1.07976762281813    0.01180620912608   17.15640481952741

