52
CSD_code = TURKOG | q = 0 | S = 0 | Stoichiometry = C23H24I2NPPd | MND = 4
Pd        0.57238392227130   -0.31488083740730    1.58271708646465
I         1.45919579106659    1.33630649811640    3.35497943396929
I         1.18605148701539    1.19541086572068   -0.48819386402305
P        -0.97602468967881   -1.12737669346487    2.99896958204804
C        -1.37510441763787   -2.87270084516828    5.15784488451153
H        -2.43246728608267   -2.68141976795140    5.03159829698086
C        -0.92610382124324   -3.73153672774579    6.14262141621411
H        -1.63648791761721   -4.22472046191029    6.78956946991959
C         0.43325075508778   -3.95701015881860    6.30535294597245
H         0.77543967045554   -4.62621512811184    7.08055831986252
C         1.35164069932801   -3.32183688850996    5.48624973331458
H         2.40953782222308   -3.48941883568059    5.61884106607658
C         0.90930717084528   -2.46223788419324    4.49734783073821
H         1.61934513514122   -1.94528698412436    3.85584816041359
C        -0.45299125001982   -2.24161528641909    4.32877067176691
C        -1.94120086959507    0.56509196312155    4.92468203320860
H        -0.92091955871658    0.53908382043761    5.28380366777754
C        -2.89058763432855    1.32588192156980    5.57849024653686
H        -2.61118680824305    1.89482393275488    6.45201160680386
C        -4.19415971119039    1.36164451099682    5.10869280374527
H        -4.93576766831015    1.95928694480891    5.61697428031300
C        -4.54699321355738    0.63329896467913    3.98486527849352
H        -5.56297686689106    0.65929239903029    3.61893671070268
C        -3.60208883577660   -0.12803930891748    3.31999472006728
H        -3.89079631961399   -0.69040722821071    2.44388173987738
C        -2.29272630924088   -0.16604942383155    3.79001472938247
C        -1.05407175695999   -1.70476148700145   -0.49589421566161
H        -1.33004505937223   -2.54060859431024   -1.15716239194030
H        -0.79575776872028   -0.84336144761215   -1.11617487195928
C        -2.17852751301093   -1.40825855414965    0.50978916904670
H        -2.18737154547192   -0.33141827662490    0.74685135803857
H        -3.15568668694739   -1.67673292200435    0.10962696140867
C        -1.79417768740075   -2.24521151550521    1.75639205992063
H        -2.60637698510638   -2.84930834262534    2.16786010871065
C        -0.61097029830172   -3.06527807628156    1.25105974439210
H         0.04656541787574   -3.40829744254174    2.05676249202350
H        -0.93782138855066   -3.94139934915526    0.66859902000755
N         0.04976231874973   -2.09620781676305    0.37783516291282
C         1.25152194882686   -2.63047545524314   -0.27102036250934
H         1.01798855461373   -3.57744531889798   -0.78086022875798
H         1.59996142966114   -1.90819566489979   -1.01737298883917
C         2.46898855693971   -4.09148516981692    1.38508384889929
H         1.91517289139494   -4.93971878308299    1.00539533313159
C         3.34892008674762   -4.26348260399043    2.44004189827630
H         3.47331760754715   -5.24320028235906    2.87726443017905
C         4.06072488010991   -3.18361591107893    2.93444334582405
H         4.74071270230552   -3.31560872532881    3.76263559117610
C         3.91496728927003   -1.93616326128892    2.35035051196038
H         4.48333816230155   -1.09325782989179    2.71549075215774
C         3.03926072496310   -1.76082218050543    1.28647826917976
H         3.02714668416768   -0.79784217388634    0.77755780052485
C         2.29768815876696   -2.84181217598074    0.80094435083173

