52
CSD_code = TURKEW | q = 0 | S = 0 | Stoichiometry = C23H24I2NPPd | MND = 4
Pd        7.40281811466596   11.11473267173441    8.19619569720846
I         5.85803201760613   10.27611993449519   10.08257638553198
I         5.58203920245413   12.49116729707907    6.97451138141976
P         9.21432856172266   10.73469662480441    9.45853347889182
C         9.46945251391647   12.56004083882749    6.51249438670418
H         8.67772383493013   13.31565467541345    6.54591560185911
H        10.05338746013096   12.70265293343450    5.59332587875879
C        10.39723128153743   12.60428500967045    7.74039111838522
H        11.37324210965543   13.00926226293165    7.47242696442429
H         9.98529737771079   13.23470837618172    8.53377100337536
C        10.51764441044889   11.13470578084717    8.18638064354731
H        11.52627054083149   10.86994159455852    8.51220617137443
C        10.02914357177433   10.38187707951791    6.95013373573871
H        10.80065261824207   10.35834769534007    6.16639376982376
H         9.70226446197686    9.35602036006863    7.16481580944269
N         8.89456367368675   11.21081420451926    6.53769736043920
C         8.26489250392355   10.77682022214946    5.27619449771528
H         7.77827309309426    9.80815563133493    5.47137839318472
H         7.49201599156253   11.50735326402305    5.01780122548398
C         9.89217339229414    9.45277183021104    3.87781775021028
H         9.70703593379196    8.59484617550522    4.50993071130570
C        10.78353294582304    9.34659377101927    2.82483094028233
H        11.29650448363777    8.41279591729942    2.64820810887285
C        11.01249873186484   10.43289914671350    1.99754549812898
H        11.70829879609110   10.35036267954467    1.17624588567408
C        10.33511915059102   11.62007952869778    2.21778737780938
H        10.49695357710801   12.46541840457823    1.56583216768730
C         9.44189084137174   11.72520796743721    3.26959632825847
H         8.89810375977713   12.64705864247368    3.42147995158340
C         9.21999193624246   10.64593314792583    4.11777458935190
C        10.73672542586508    8.38078857111974    9.82109934249609
H        11.21577550606575    8.57745417319827    8.87187988882012
C        11.07806067441737    7.24439783476346   10.53261729661142
H        11.81968141672828    6.56807070116153   10.13323383392648
C        10.46988753635446    6.97011538688384   11.74644038191364
H        10.73753921191325    6.07820406434301   12.29260585662530
C         9.51449064509974    7.83593095963275   12.25526872281515
H         9.03181291558904    7.62094137357459   13.19631109173244
C         9.17098418542055    8.97557581246427   11.55468387619734
H         8.41908609151503    9.64916934332707   11.94351008641061
C         9.78888210784197    9.26038018596783   10.33633541270261
C         8.40656595986336   13.10032575948774   10.60392163979720
H         7.63055336083070   13.08072516431140    9.82788227464829
C         8.45813892085368   14.14889994402851   11.50348184792157
H         7.73821725268764   14.95041114838115   11.43833552472426
C         9.43021258030659   14.16031234538039   12.49108177864033
H         9.46798701380842   14.97521865383865   13.19812290428289
C        10.35136546589448   13.12789109121707   12.57968004088352
H        11.10587698718266   13.14157801200424   13.35217413669262
C        10.30550286065786   12.07491371784983   11.68481133723476
H        11.01564623758915   11.26221163295031   11.75483960047860
C         9.32843075504765   12.05766045577816   10.69469031197032

