30
CSD_code = TURMOB | q = 0 | S = 0 | Stoichiometry = C5H13MoN5O4S2 | MND = 7
Mo        0.19195189485668    1.75186955864149    1.98902599213680
S        -1.54928460963105    2.48251765639901    3.83914840219976
S         2.16894830184487   -2.18091764980444    1.15472068446577
O         0.01903317539620    2.42439236198202    0.18793871722317
O         0.33931001755114    0.43835017761621    3.30259567138615
O        -1.54465650108409    0.84406965548713    1.52424923424691
O         1.32922698914103    2.80994541331561    2.50980160653533
N        -0.73075777452319    3.25285781897625    0.93065277795394
N         1.19514127961691    0.29923807773805    1.06695795414042
N         0.83511844085763   -0.82467903236830    2.98821140025846
N        -2.31003357210450    0.33937643358996    2.52237924544366
N        -3.20529289675519    0.57926030476057    4.64925818027477
C        -0.25490198886241    4.63098279489505    0.91795085987512
C         1.41475791679479   -0.83454214640093    1.74944120379551
C         1.44779052665388   -1.49798127761881    4.11148808629950
C        -2.38558782752984    1.00324663536676    3.65736965805613
C        -2.89384083739633   -0.96128853106015    2.28209453895097
H        -1.71597208535783    3.19414149790709    0.62005472285359
H         1.56190892741794    0.26347708690266    0.11996056477942
H        -3.12542856285596    1.08326232746138    5.51718428102221
H        -3.47256505814571   -0.38977122935838    4.70325081524066
H         0.79122812647576    4.60336023202930    1.23602305038107
H        -0.32978731645672    5.06212889235597   -0.08440235463089
H        -0.83752807741796    5.21636663755170    1.62907157104600
H         1.92873419690981   -2.39983194015302    3.73759137803297
H         2.19052438680884   -0.84665820554400    4.58596388256334
H         0.67704349803025   -1.75811095192655    4.83795122686538
H        -2.65564599397373   -1.22932848749260    1.25414144444248
H        -3.97764333404670   -0.92592264979948    2.40658145031954
H        -2.45969124222310   -1.71171146145632    2.94784375383692

