61
CSD_code = TURNIE | q = 0 | S = 0 | Stoichiometry = C19H36AuClN4 | MND = 2
C         6.02691857379987   12.43599153100526   19.58603957810990
C         7.18900791478666   12.34661255281156   20.37713502634429
C         6.19584288436757   13.23833308095356   20.73783785024814
C         9.04132258639302   12.05930524969083   21.89204047084992
H         8.29254952825129   12.53952971804079   22.52851120573700
C        10.23427586595694   13.00648372489580   21.73700672009653
H        11.03150860645762   12.54052566725542   21.16394413139338
H        10.62740274279289   13.27189649565830   22.71490441971328
H         9.93151893853580   13.91734425484364   21.22444562238208
C         9.45176974112526   10.75729334193658   22.58111611030610
H         8.59618295808596   10.09241530036112   22.67008514213378
H         9.82091235404203   10.97903889128564   23.57933623006976
H        10.23836474325907   10.24374212566028   22.03569651306126
C         9.07212339823341   11.02766340619438   19.58753852862948
H        10.09914446637632   10.89528444409244   19.94016308842028
C         9.11820929707910   11.78381933492134   18.26274960782752
H         8.11889284509953   11.87848886597788   17.84233909283085
H         9.73066079803519   11.23868967571321   17.55018821121013
H         9.54091237887927   12.77723936160383   18.40168223160333
C         8.42789618103761    9.65365929284001   19.42615281805109
H         8.46005328905271    9.09461367629978   20.35807498935414
H         8.94757191750939    9.08631273809068   18.65949134381411
H         7.38972145077438    9.76031505124445   19.11405294660274
C         6.66869364353667   14.80199063244443   22.51603270527461
H         7.67162947414780   14.48887584567943   22.21142939999715
C         6.62134996662871   16.32761551247167   22.41324113375541
H         6.77957340366787   16.63944382038616   21.38374653738083
H         7.40856818545567   16.75612715512356   23.02815073896383
H         5.66995254187003   16.72510200807498   22.75561041595466
C         6.42181820809665   14.33282686005959   23.95253279695332
H         5.46303176316080   14.68800663624612   24.32134853445766
H         7.20114760359194   14.71486392824949   24.60670792131126
H         6.42747209527280   13.24584466306678   24.00328368558791
C         4.32321198223447   14.49246883364263   21.63794338512221
H         4.18886751822658   15.13921781535694   22.50916195536493
C         3.86773418419425   15.23923365256156   20.38668670446774
H         4.48454810228418   16.11862366166455   20.21873623865613
H         2.83526348254418   15.55810126728313   20.50313238247023
H         3.93681677358026   14.57904081021070   19.52664561187068
C         3.49988105915542   13.22277196849784   21.84492466250754
H         3.60998648901910   12.56557204686746   20.98829653912372
H         2.44909780253582   13.47612408255266   21.95580320804083
H         3.82629385966439   12.69378908798888   22.73809398008265
C         4.24248844429997   13.52012117066623   17.04933178265108
H         4.68591648667995   12.86285113877645   16.27980349539542
H         4.88362518024737   14.39681449678276   17.16282665750134
C         2.79230617029748   13.86612380852735   16.70724514742546
H         2.55542670167574   14.88336721608016   17.01680170725392
H         2.61778218505402   13.78766669357892   15.63606442604215
C         1.95733304611045   12.84519609780975   17.50383198379141
H         1.36705022193076   13.34881988131477   18.26878959544017
H         1.28127356935599   12.27759673111698   16.86807184488083
C         2.99829147340952   11.93852739573895   18.15573593453852
H         2.68232923308505   11.54514663768837   19.12350441882221
H         3.25336076608338   11.08509543931937   17.50096442535990
N         5.34571638169120   12.05416519450039   18.55646123634748
N         8.38905894128996   11.81615295354012   20.61215366152041
N         5.74773301638644   14.17456053904675   21.57869770706284
N         4.15616822713728   12.80251309146606   18.31455690039622
Cl        6.49664662167646    8.95276778040566   15.74494209351925
Au        5.87159173479568   10.56267566387631   17.19397656589965

