85
CSD_code = TURRIH | q = 0 | S = 0 | Stoichiometry = C33H48N3Y | MND = 16
Y         1.23076775582622    9.76010609530055    6.30625776149293
N        -0.95752742113647   10.36028763734925    7.78542995895598
N         5.03511279299674    9.53851431789958    0.83510401031392
N         7.37144412277121    6.87143171368145    6.80133057408910
C        -0.27657620562160    7.62755912515206    6.47786458365976
C        -0.60883755482562    7.51949414350273    5.11883834761771
H        -1.59512951678898    7.61737689987698    4.69466477023482
C         0.54672464496058    7.21019905379141    4.38767571488266
H         0.58636781866735    7.05180545247557    3.32267313300528
C         1.61932204095096    7.11720575616451    5.26582456009740
H         2.61534608206443    6.77797540076937    5.02258191909182
C         1.14536048521234    7.38677115360504    6.58528145589041
H         1.64618283609880    7.02971244352884    7.47941727727143
C        -1.25867118655508    7.64171960134661    7.63160504738487
H        -1.56691096526652    6.60114698698420    7.80579557934791
C        -0.67617897269461    8.19846757330337    8.94594898928487
H        -1.11226742308710    7.66928947076686    9.79566379500050
H         0.40393287986513    8.04530562226855    8.98509168796386
C        -0.98302519349075    9.69034142026977    9.09607747516018
H        -1.96892968012523    9.83889756368023    9.56257785936366
H        -0.23962973265939   10.15322026808897    9.74687148320434
C        -1.01914505232967   11.81025513373966    8.00387470046477
H        -1.09148080698350   12.33439140386501    7.05194626004519
H        -0.11872944019424   12.14444138511167    8.52015143708523
H        -1.89175644566678   12.08196096873097    8.61503740579847
C         2.21635096287444   10.78709478857194    3.84296177324070
C         0.83379155597596   10.49231801850633    4.05984715794423
H         0.25663385676690    9.79043962824950    3.46676271606537
C         0.26596081277539   11.61796061858545    4.75580074704803
H        -0.79590535829500   11.82315754387704    4.82513520501599
C         1.29351013692500   12.54860484358370    4.96137980861556
H         1.18552633602314   13.51507682407432    5.42881795983174
C         2.47692325859164   12.03601681006314    4.41336805254339
H         3.42511013963851   12.54554106553491    4.41836670347793
C         3.13271480158960    9.93029486807870    3.00652476109194
H         3.03715984929376    8.88067389038470    3.32540506919245
C         2.73515592188392   10.00498155043948    1.52547544804739
H         2.81861616483807   11.03885719066714    1.18812044186901
H         1.70165602258304    9.68247233386893    1.39184672277218
C         3.65309834463860    9.12347040166209    0.68587353452343
H         3.51810281390339    8.06501156033932    0.98399723561301
H         3.38431633021337    9.21167889731879   -0.37059067409272
C         5.91196369738927    8.80868702912659   -0.05098659540498
H         6.92734546463832    9.18782255811374    0.05880324846595
H         5.59172146392062    8.96586733408647   -1.08036473718700
H         5.91984761602774    7.72425662829539    0.15086226165657
C         3.82271013081995    9.04592055691167    7.89684404603275
C         3.11502657461858    9.15626106812060    9.10113663997839
H         3.13333965498705    8.43654857724519    9.90289007112962
C         2.41277264274701   10.35925026713767    9.11556264345623
H         1.86546913704995   10.75576417456429    9.95709139255013
C         2.62146199800187   11.01945378216001    7.88507021235907
H         2.49641677261928   12.08624189811847    7.72112604351735
C         3.52373111440500   10.18361953634268    7.11447575127156
H         4.12216826753308   10.55319732406214    6.29035249323648
C         4.76177447924220    7.92353374326083    7.54802351451544
H         4.22629386402447    6.96587834846954    7.63023719517219
C         5.33572839251767    8.03559489820392    6.13719093409385
H         4.53461528637123    8.05581005259463    5.39419711186162
H         5.91282206691353    8.95780115130681    6.05653431903619
C         6.27072397939832    6.86472414352104    5.85683599038205
H         5.70293329397824    5.91448323857985    5.90432642465886
H         6.68780912582800    6.95745034470317    4.84974856032089
C         8.36021288587299    5.86844064171188    6.48014411537191
H         7.95997356739700    4.84153131294634    6.52562207743467
H         9.19006810761361    5.94676377994331    7.18153594424937
H         8.73757026132959    6.04784955736592    5.47397416957198
C        -2.17361325622967    9.93149172998525    7.05186687039239
H        -2.01228518160289   10.10413128494877    5.98298549748446
H        -3.02985185313986   10.54717109152761    7.36773769614922
C        -2.51416343534662    8.45577036519500    7.30128264989988
H        -3.01239803320977    8.04645813805345    6.42363784136111
H        -3.21064212700058    8.36746502937775    8.13809590669042
C         5.45347332099664    9.42876505993546    2.21943684207572
H         6.50267458689948    9.73030249119574    2.28291244080929
H         5.37799517386586    8.38498652071142    2.58348581931811
C         4.60232008349771   10.33757606671124    3.09908167073113
H         4.95950913634684   10.27954711352779    4.12805964796940
H         4.71285891999965   11.36355796415106    2.74692192752263
C         6.88122841988614    6.72718873460615    8.15957466995174
H         7.74318072172836    6.72721850659871    8.83259762960808
H         6.34668457158276    5.76590647058759    8.29210499726327
C         5.94824149666230    7.87846945654676    8.51906388958855
H         5.59654552487486    7.75678852798516    9.54418938586865
H         6.49525427274804    8.81992607640593    8.45445234008221

