85
CSD_code = TURSOP | q = 0 | S = 0 | Stoichiometry = C37H42Cl2N2ORu | MND = 5
Ru        0.91407466365669    6.82220571690517   26.97015860711476
Cl        2.40763062689561    7.10414269597897   28.72272907914216
Cl       -0.83931167470354    7.31030760461552   25.57200388333592
O        -0.66390191206468    6.17163986933168   28.52333907044757
N         3.33255645618060    6.68941969249607   25.11123147250657
N         2.33690902533894    8.60738793228403   25.21444054638001
C         0.96653146632603    4.93366140199702   26.82018041367983
H         1.63190988732976    4.34467751587643   26.19061497808534
C         0.03546965359091    4.16937846412211   27.56393014686668
C        -0.06365010108012    2.77355357670949   27.43848498896180
H         0.60638989595617    2.27183761719535   26.75550433340635
C        -0.99366184808661    2.06224123149457   28.16297241700061
H        -1.06128468184467    0.99015281511481   28.05607653030264
C        -1.84869962406679    2.72591556213206   29.03122089147717
H        -2.58339428410557    2.17152764933951   29.59558711138224
C        -1.77284191839989    4.10128910291646   29.19119864065569
H        -2.45504170820600    4.58320138059620   29.87404599919961
C        -0.83880356809801    4.82848515276677   28.46966742737778
C        -1.31151638696438    6.94379272528091   29.53220568630994
H        -2.38181407546049    6.69082978806022   29.54028042808586
C        -0.67094515795075    6.67626457910406   30.89323469711396
H        -0.80197870396582    5.64032831370854   31.19716888999319
H        -1.11373424906447    7.32342118622129   31.64553067923666
H         0.39692146190485    6.88188466689378   30.83218354906225
C        -1.13893952421878    8.40023389659162   29.12559913918382
H        -1.46696249370074    8.54353022805462   28.09497905441771
H        -0.08776714896543    8.67266799267755   29.21740794032820
H        -1.72569126368110    9.04803396184691   29.77134123366074
C         2.29264375062697    7.33268331111578   25.63410990659922
C         4.16867344712263    7.54709498142541   24.27714746100132
H         4.13054316339150    7.21322304298892   23.23479326799572
H         5.20664507824269    7.49851260314691   24.61126719526911
C         3.54791359191996    8.93214854076820   24.46436692784561
H         3.28434038635031    9.38675231636836   23.50313981588375
C         4.40443939237167    9.94271903140991   25.25450622250392
H         3.74617616564930   10.79293578700010   25.47180803997970
C         5.56083873808277   10.44216435088744   24.39263079051826
H         6.14225691582769   11.18016553255510   24.93921160795060
H         5.18902775732471   10.90370725888572   23.48028768367880
H         6.22174069279175    9.62314812383913   24.11743879504144
C         4.90959054729471    9.37746438470548   26.58035543854756
H         5.27154436064272   10.18456738608848   27.21219423552137
H         5.73236269987324    8.68418326623045   26.42560853515852
H         4.12060183686665    8.85614210744214   27.11827973649054
C         1.40108613105446    9.60594055270571   25.55314033683871
C         1.13510749775367    9.87472898355592   26.89267866943863
H         1.67628892863172    9.32849644032697   27.66104702976090
C         0.25645330968818   10.88750913913219   27.24110216547744
H         0.05834263866842   11.09412956987839   28.28237716627599
C        -0.34896388955606   11.64627813709611   26.25532677947735
H        -1.02993727584643   12.44001572205988   26.52367938198681
C        -0.08400984165839   11.38442780211015   24.92320160597346
H        -0.57126485242336   11.96040624740690   24.14995618005742
C         0.77885802740108   10.36155258810827   24.55037860743765
C         0.98622865845441   10.06661160155628   23.12093926102771
C         1.42108716494458   11.05866226288109   22.24719335469121
H         1.62312951487220   12.05082675322270   22.62626812239620
C         1.61220133789629   10.77215111118393   20.90736605257234
H         1.95710459040325   11.54537613279803   20.23610533109205
C         1.35881022419529    9.49815379662257   20.42660434657444
H         1.50647395711632    9.27716327809605   19.37957969103066
C         0.90646689749642    8.51225078596587   21.28875737745577
H         0.69012712798777    7.52311114659373   20.91218028980660
C         0.72209285959722    8.79046703375501   22.63064401612490
H         0.34773778125209    8.03497362856869   23.30498944471656
C         3.55331684117748    5.28942749634782   25.03134037130610
C         2.84901477599744    4.55063970657494   24.07452713637724
C         3.12040955171732    3.19790615099866   23.95324704184862
H         2.58053530093201    2.61420006095070   23.22117116741893
C         4.06326332698675    2.57154346150832   24.76000626796802
C         4.73077334957739    3.32408629695284   25.71263416273370
H         5.45148124185661    2.84466052960986   26.35944256890947
C         4.49157574049517    4.68417010375037   25.86379088487118
C         1.78120420651053    5.20182377229749   23.25161291134630
H         1.30581437758633    4.47584601658933   22.59780763048124
H         2.18503205558916    6.00793830118090   22.64103269062301
H         1.02271193863760    5.62844036786525   23.91177117478798
C         4.33456295974725    1.10678109966896   24.59619349835496
H         3.41174483454378    0.53586161049002   24.68710499679079
H         5.03820552806182    0.75388676341547   25.34538235999569
H         4.75050159560443    0.90894925091575   23.60875713762555
C         5.20083771874519    5.47600975664179   26.91613215978620
H         5.69003332678941    4.81535884165587   27.62639030113813
H         4.49122669942441    6.10389792983745   27.45220632511541
H         5.96014250518926    6.11991542397284   26.47307050761701

