75
CSD_code = TURYOV | q = 0 | S = 0 | Stoichiometry = C30H41ClO2Ti | MND = 8
C         1.40915054497186   18.11241099770363   16.42320994722358
C         0.63390384892194   19.27924766901469   16.14441752264920
C         1.52195160003321   20.31002540134702   15.70970792889854
C         2.82604016455877   19.76712972770008   15.66682338203810
C         2.75514374393842   18.40565737588688   16.09928990613624
C         0.88403931887216   16.86257414225913   17.07367210972198
H         1.60256679671380   16.04873512156356   16.99541303158865
H        -0.05054931390349   16.53260786856622   16.61674421125144
H         0.69580138114553   17.04720879628479   18.13457864818515
C        -0.80461756401407   19.50356587022818   16.51734341748045
H        -1.31897342506443   18.55972659564760   16.69099095315174
H        -1.33546034848965   20.05971239044585   15.74197596756037
H        -0.86083333761510   20.08980273565123   17.43904176505483
C         1.10143039721051   21.73533719201329   15.48410948921285
H         0.29179047936716   21.80063244141389   14.75343997001886
H         1.92995248200693   22.34236453663272   15.12472941308157
H         0.74350533198868   22.16934433561444   16.42112768817070
C         4.11644469714293   20.48757154336453   15.39977032650013
H         4.73621718345278   20.47989514179623   16.29938941386821
H         3.94230848849011   21.52527317442814   15.11980476284748
H         4.68047563043913   20.00033261272065   14.60175325149660
C         3.96253922803176   17.53726125938333   16.30991692865194
H         4.56866857497577   17.93252063985894   17.12896715031097
H         4.58336340615007   17.51538301956782   15.41214312178767
H         3.68039851695865   16.51611679052004   16.56020255175366
C         0.90223290004605   20.49773522387339   12.04634875430863
C        -0.05465783620736   20.60467515496083   11.01255577199512
C         0.18198189443100   21.54163895770311   10.01696420031679
H        -0.52566682169886   21.65686702953264    9.21240454374562
C         1.31030250673174   22.34510761479746   10.01134302147261
H         1.45289254912884   23.06188048278488    9.21672169203589
C         2.25272729705548   22.21869450011505   11.01549121851969
H         3.14345016308754   22.82919863214603   11.01242030032604
C         2.04626963030483   21.30397156544467   12.02690968452036
H         2.76977312022685   21.17242304896640   12.82412449756684
C        -0.77472082111865   18.23310391586570   10.90711848391960
H        -0.24629879599381   18.08266682781669    9.96719919202050
H        -1.61528729239955   17.54237509882286   10.94974588988238
H        -0.09177056248190   17.99719977913430   11.72573745046675
C        -1.26911629286345   19.68517071527153   11.00364278489905
C        -2.07295290298855   19.88760655231914   12.29644007703462
H        -2.92534689706893   19.21113339686675   12.31650124888935
H        -2.43871555566289   20.91182513737447   12.35362741132182
H        -1.45063724400244   19.68823106019061   13.16877695753444
C        -0.21164245631182   16.19661424336508   13.80554055758142
C        -0.00470453704456   14.86223691467615   13.39135486096366
C        -1.11083075942244   14.02415413135755   13.37222167890791
H        -0.99738520068830   12.99710171616453   13.06695930671098
C        -2.37695783768671   14.45576333247472   13.73286026515076
H        -3.20669754076457   13.76570218245884   13.70340952815534
C        -2.57367387698311   15.76857841598030   14.12026399089561
H        -3.55767338896511   16.12032228578326   14.39404510408876
C        -1.49665138943594   16.62926100005695   14.15410579526323
H        -1.60983619263189   17.66739712290376   14.44584195098353
C         1.78354080883318   15.21081042050933   11.70732500614608
H         1.83191069410946   16.27732452161300   11.92982296986605
H         1.06208669309845   15.05584745765036   10.90673664732986
H         2.76448088693061   14.89412555094055   11.35967609452236
C         1.37927568377001   14.40430137444302   12.95056350588224
C         2.39427888326246   14.64167752580381   14.07909487429702
H         2.50879968242246   15.70778796846488   14.28265531837341
H         3.36625262285448   14.24705602900128   13.79013927106292
H         2.07021891097972   14.13586489108543   14.98790310177100
O         0.76129427228405   19.65294113653460   13.06293230292529
O         0.77381024842725   17.07881068550458   13.89129304221853
Cl        3.34704647174046   18.26614771372593   12.96476635650732
Ti        1.50743438889813   18.58581998804968   14.15944921479905
C         1.41717313111692   12.91613460064486   12.58719191610874
H         1.14020494374836   12.29623283065826   13.43709075986040
H         2.42843141627992   12.64718828612066   12.28940364046808
H         0.75539788663771   12.69687937022211   11.75275317284738
C        -2.20697331442932   19.94700903795156    9.82115448733813
H        -3.04935802534893   19.26030628609151    9.87553746678125
H        -1.70063264444693   19.78124272046063    8.87353502517927
H        -2.59723732602286   20.96191818573644    9.84503674761757

