56
CSD_code = TURZAI | q = 0 | S = 0 | Stoichiometry = C29H22AgO3P | MND = 3
Ag       12.73099079124359    4.05150393429702   16.76397346259306
P        13.24299975589112    2.94018757522106   14.67970887458852
O        14.19833759863482    5.11084883048913   18.19676279819188
O        11.33496347665626    4.43480991660036   18.48370570157007
C        12.97081315717385    0.53328582296162   15.95699804370008
H        13.18898194660309    1.14038960990257   16.83348174166957
C        12.59157295892730    0.39573085409868   13.58478951914916
H        12.50648235076848    0.87109455600621   12.61732076650811
C        12.52347196832155    3.47029340482723   13.09633427519655
C        12.88786439391296    1.15257983866492   14.71296239358891
C        11.57207030872814    5.06135879716895   19.53286266972015
C        12.77976632524926    5.65637192948867   19.99982145624715
C        11.15673700385499    3.26216223468315   12.91474146490173
H        10.59124539466448    2.75870335978041   13.68904237946917
C        15.03633327579949    2.91332166297301   14.35572690679046
C        14.01538307042365    5.65258609208189   19.30795170939101
C        12.54789905067208    6.28071724362652   21.29687693628672
C        12.77100727234770   -0.82902345363558   16.07271566767279
H        12.83600810211552   -1.30518078106841   17.03954245534095
C        12.38661128297954   -0.96742164546038   13.70654090891060
H        12.15288307331123   -1.55344815454858   12.82976871538854
C        12.62442336163848    4.57645360368849   10.96844071409722
H        13.19412938566681    5.09635309345846   10.21227161662478
C        15.58307850639331    2.14837869191694   13.32846596046424
H        14.93769413314101    1.55808302908206   12.69300416216429
C        10.53094208013319    5.31343519884365   20.56606162583803
C        15.86748644435493    3.66282798435238   15.18140673145227
H        15.43411519384842    4.24608650493660   15.98766424001434
O        13.32574899669574    6.88501671436991   22.01324604624403
C        10.36141204344209    6.40895771614568   22.71071517457368
H        10.81305043099363    6.96808287140809   23.51617027679573
C        17.77675451731207    2.90037581099256   13.94614821411363
H        18.84442806334339    2.89416064264376   13.78422502556297
C         9.20093075092764    4.95079864996964   20.59913420197606
H         8.76193142274582    4.39185411400813   19.78626694139821
C        17.23593269562470    3.65589467171628   14.97314781740588
H        17.88009552388494    4.23844115703416   15.61433440156267
C        11.10652064720642    6.03623515522912   21.61327306977876
C        11.27212959454793    4.34518519412628   10.78024182406147
H        10.78764772013675    4.68149369921255    9.87583146452075
C        16.95017887731074    2.14657349381497   13.12626449362049
H        17.37438619618911    1.55463059452993   12.32849257492511
C        10.53706159541432    3.69032957699539   11.75716966466399
H         9.47992791403890    3.51993366280154   11.61606858550052
C        12.47947281232331   -1.58071732486981   14.94505428374015
H        12.31812546111463   -2.64464965122298   15.03287248348346
C        13.25235263313610    4.14692734431774   12.12507123058933
H        14.30646173500180    4.33499578565258   12.27345714395259
C         9.01813697784586    6.04423314093214   22.74587450687585
H         8.41175478314050    6.32438099414466   23.59525673113900
C         8.44796137811155    5.32706429134526   21.70749660305874
H         7.40312075345975    5.05565816810249   21.75846068711904
C        15.18708931241206    6.34627525660495   19.95421158627137
H        14.94635227167631    7.39103621364573   20.13531789500387
H        16.05896130201947    6.26867053128264   19.30862586552591
H        15.39628192652338    5.89577179055671   20.92152730903891

