58
CSD_code = TUSCOB | q = 0 | S = 0 | Stoichiometry = C17H32F4N2NiP2 | MND = 4
C         6.39914001042716    0.81816192522629   11.57315337466248
C         6.79574201984606   -0.30740593274607   10.86542596347567
C         6.43995004907229   -1.60741138464652   11.23787031809737
C         5.65355541255800   -1.69615907016899   12.39540797296541
C         5.29219037710051   -0.53497253216459   13.05561651960133
C         4.20756913019900    1.24547022402981    9.19961563371298
H         4.95713620479771    0.64174484574075    8.68052844603519
H         3.88557840484420    0.67314993519508   10.07370025266547
C         3.02086929750959    1.50537576570855    8.28187156168986
H         2.22910028254309    2.03676928635063    8.80331396219575
H         2.61434778226100    0.55847187554565    7.93035016189734
H         3.31209972021624    2.08768558894476    7.41098835562777
C         5.72280009449789    3.57734993442314    8.32452164198410
H         4.99333953161679    3.52644887122846    7.51337362808694
H         5.87895107109739    4.62326882612092    8.59643662431175
C         7.05458612328375    2.95006410564841    7.92882590522764
H         7.71847894043637    2.96498970195292    8.79915525654740
H         7.52711868447841    3.50324719875067    7.11972926570923
H         6.92692778404115    1.91547454045121    7.61569718358972
C         3.76192401556118    3.86068633989925   10.41713343247329
H         4.26709022219374    4.78192329111594   10.71790759376070
H         3.07970274663483    4.09265321091584    9.59523237726861
C         3.02890201711568    3.25800135130951   11.61009849847922
H         2.42560139508877    2.40335368138171   11.31091287391071
H         2.37380056342071    3.99367259813699   12.07274013700711
H         3.75053912011299    2.91804510233699   12.35321771355579
C         9.08312958410145    1.05158675240573   13.38499274780377
H         8.23836644219579    0.73411678217278   14.00232400130813
H         9.23163142524009    0.27839776791711   12.62622137633544
C        10.33563552625291    1.18828153590432   14.23970274470303
H        11.20362800206691    1.43181655623299   13.63235833972894
H        10.53621572041366    0.24823496614168   14.75113617833474
H        10.21659297526872    1.96012113186271   14.99593482787416
C         8.15003597164504    3.76938832724250   13.84543929298745
H         8.86601630984911    3.67750306691546   14.66514174991746
H         8.23947702190706    4.76553202754860   13.40652467244927
C         6.71711673376791    3.54585379851304   14.31642056514277
H         6.05259375440199    3.57485185704407   13.44497616821864
H         6.40704001817871    4.31814940370456   15.01754353501888
H         6.60382673307721    2.57426079409112   14.79286636017975
C        10.04562357632319    3.26790110768039   11.73944101991236
H         9.73893525261209    4.21016673987990   11.27899806845991
H        10.78193475453444    3.48597141151825   12.51712315026895
C        10.60965464334413    2.33174888789374   10.67744261976419
H         9.82133574263920    2.04365954138929    9.98230076153285
H        11.01334731172498    1.42590799143283   11.12528009237151
H        11.40425308317957    2.81900839179676   10.11565054575878
F         6.99498262299769    4.35215910309648   11.03289492260144
F         7.57359017988901   -0.16135062110883    9.74918572428040
F         5.27802788112842   -2.92575252561890   12.83658719192227
F         4.54327831833905   -0.60929494219670   14.16907716736240
N         5.64346470325586    0.66503724016220   12.66526399641160
N         6.77627643491613   -2.70488508124877   10.50624201075295
H         7.49051618897244   -2.60273473209917    9.80664278764564
H         6.65226025853492   -3.61008192558490   10.92565165071077
Ni        6.73495793572486    2.57634727746875   11.25380135217620
P         5.09680820241743    2.73701792895256    9.83847682049092
P         8.51820568975179    2.57332015892426   12.49673290342838

