65
CSD_code = TUSKUP | q = 1 | S = 0 | Stoichiometry = C30H29AgN4P(1+) | MND = 3
Ag        1.59680387818295   -0.27616997548624    1.57614323847391
P         0.22946779710766   -0.81388431725606    3.54653310277075
N        -1.01807167609332    1.57410018797852    3.03422900113252
H        -1.16981672886080    2.17778490083753    3.82523083722681
N        -0.11292529486020    1.30291333415014    0.92039923039706
N         3.20103714922939    1.42697543210335    1.24046123606922
N         2.94724780106141   -0.96791198388759   -0.15629847999329
C        -1.31713697121802    0.17988696362918    3.17836601920628
H        -1.73667774331737   -0.18976538188100    2.23719944170334
H        -2.04439120961646    0.04492566653551    3.98396467567368
C        -0.47440700214249    2.12436168901748    1.91774313274567
C         0.30295777446576    1.85567844182836   -0.22380439030631
H         0.52403593523019    1.15546583046215   -1.01952678282044
C         0.42474159803131    3.21307692502204   -0.41996358442985
H         0.75664304167112    3.60303795074571   -1.36763725485830
C         0.10776770308647    4.06343189306547    0.63836518010611
H         0.19931867461736    5.13304539464270    0.52871616874318
C        -0.34807233903673    3.52147261045067    1.81514254480228
H        -0.62954219847092    4.14483380125307    2.64975144400122
C         0.78235013694824    0.04417531569044    5.05144269448113
C         2.01981995421999    0.67794159379763    5.02324879631857
H         2.63138871541113    0.59602759951726    4.12657836765296
C         2.46582397929158    1.38266026265903    6.12747427857405
H         3.42886380734994    1.87044692289514    6.10603280810422
C         1.67747673799883    1.45169547914893    7.26482329161756
H         2.02500552984051    1.99663372185362    8.12901039561104
C         0.44582919085563    0.81465781478468    7.29976583980572
H        -0.16165826328458    0.86408284802217    8.19072636103245
C        -0.00549826000958    0.11233990714029    6.19773586448600
H        -0.95901083831270   -0.39682585408686    6.22943490061171
C        -0.47905135925144   -2.36257855980619    4.18064030052202
C         0.14241363100815   -3.01446953627932    5.24325466816964
H         1.01526264497080   -2.57392044835138    5.70554087746818
C        -0.36195116566804   -4.21461839157813    5.70800080624860
H         0.11615642865300   -4.71159212151566    6.53843040451854
C        -1.47604185520238   -4.78008724670463    5.10793367901697
H        -1.86914013640573   -5.71601239080557    5.47371887912697
C        -2.07905168066113   -4.14862746418982    4.03216703636806
H        -2.93995905073296   -4.59413708246893    3.55716559374636
C        -1.58054096299340   -2.94725926714538    3.56128393245385
H        -2.04618366550689   -2.46643636209936    2.71286270954137
C         3.08894104991816    2.64330778341435    1.75825272739299
H         2.67624695906952    2.69495681838608    2.75842992298811
C         3.47806176142414    3.80759084503597    1.10711473738601
C         4.00878604560139    3.66712428734234   -0.17263614975856
H         4.31481604872360    4.53918570355439   -0.73116813341948
C         4.14246909433975    2.40619803935157   -0.71861488530619
H         4.53551255511148    2.28268271416212   -1.71502544132889
C         3.73351533552292    1.29613345741808    0.01943770681018
C         3.86924586502855   -0.06807840653076   -0.51644271904033
C         4.92285996090429   -0.41050228571326   -1.36367139129857
H         5.67930485193463    0.31642342097128   -1.61229390537078
C         5.00561724693996   -1.69882005023447   -1.85285131431734
H         5.81665469226315   -1.98351009446970   -2.50648599557434
C         4.03596893792900   -2.63373701476634   -1.49581604165236
C         3.03391734604841   -2.20279164982568   -0.63451192593552
H         2.25496289603062   -2.88620499653012   -0.32092650566788
C         3.35027333153014    5.14415025889231    1.75655140034581
H         4.32009230019495    5.46337416131885    2.13819938381977
H         2.65096207919633    5.11002011356048    2.58751918767347
H         3.01885275505773    5.88981891764617    1.03778010803579
C         4.07636040572571   -4.03149561988374   -2.01284079674974
H         4.00837828013013   -4.03225701452365   -3.09980963516131
H         3.25870218636010   -4.62294252540605   -1.61065179755173
H         5.01891430745605   -4.50538296687843   -1.74352578258360

