113
CSD_code = TUSMID | q = 1 | S = 0 | Stoichiometry = C64H32N16Nb(1+) | MND = 8
Nb       -5.31925747482980    0.41224768233351   11.21746120797603
N        -6.23361080489036   -1.35481075014940   10.26946392257707
N        -8.56107857443627   -0.85802723239892   10.20067955024350
N        -7.25137500223875    1.14332681871941   10.27538000487970
N        -6.81988072893964    3.51058912100097   10.20678298514171
N        -4.76712295008878    2.17934696518030   10.02175106214306
N        -2.59153602559548    1.68260051163369    9.19195654462709
N        -3.80397876336592   -0.31877513200063    9.69288197831520
N        -4.23408531600211   -2.68606087249505    9.76982332339435
C        -5.47203582260582   -2.58468698525648   10.40650843655718
C        -6.42580833337686   -3.68926174058953   10.08907593157723
C        -6.23923981840867   -5.04080313831704    9.89487284096101
H        -5.25236602422780   -5.47341694447066    9.92075584473423
C        -7.36870586328972   -5.81014874413408    9.64681070865015
H        -7.25802431236270   -6.87137350330046    9.48245274341548
C        -8.63902137911901   -5.24511984047004    9.60387911582668
H        -9.49220503565935   -5.87914256636490    9.41672555773443
C        -8.82371849744102   -3.88391726673339    9.77821136769405
H        -9.79762209925822   -3.42507360803621    9.72801748896030
C        -7.69557052858226   -3.11390826261513   10.00928682878211
C        -7.51398475503708   -1.67891360678546   10.17104720498713
C        -8.40355936280512    0.43782317480487   10.24641285837405
C        -9.55752279633532    1.33189264811160   10.20867720377556
C       -10.91820897365770    1.09430017218458   10.21643875896830
H       -11.30194615991768    0.08769651151884   10.25450252078411
C       -11.75523581158167    2.20206168835284   10.17772715027669
H       -12.82512768975848    2.05838929445867   10.18139991985660
C       -11.24363262855511    3.49332682426081   10.13321203141268
H       -11.92566008518406    4.32954694609822   10.10315404851070
C        -9.87401933293559    3.73096600207748   10.12713224695976
H        -9.46703459812347    4.72849682272509   10.09491318773625
C        -9.04363125639439    2.62990691766965   10.16322043927328
C        -7.58759869641746    2.49443320857219   10.21631357722458
C        -5.44146280842286    3.40919771169506   10.40134111588907
C        -4.64514475335420    4.51375125706024    9.78793705142098
C        -4.88569924576592    5.86514013459149    9.66523079194369
H        -5.80934649625357    6.29756030793284   10.01399157378899
C        -3.90094171308258    6.63450826961376    9.05906757763672
H        -4.05998661330374    7.69556636435652    8.93943624396302
C        -2.71513366974067    6.06964428763514    8.60122927125227
H        -1.97118486570716    6.70368209736641    8.14356418809200
C        -2.48281634314281    4.70860170001111    8.70597094926280
H        -1.57933058783357    4.24994962350398    8.33870887119594
C        -3.47203100971361    3.93849733155033    9.29542717917184
C        -3.59019711216048    2.50350359565781    9.50811782919427
C        -2.72534154549402    0.38674934423482    9.28679188193885
C        -1.64797620643896   -0.50732520034404    8.87165785513231
C        -0.36049137249513   -0.26969778592858    8.43129061137949
H         0.01440271511296    0.73688433904377    8.34099058675565
C         0.41726811190576   -1.37746030684820    8.11937773220316
H         1.42880572822458   -1.23377486027045    7.77100682104940
C        -0.08044669632606   -2.66875055397194    8.24586692228767
H         0.55380909772350   -3.50495232198453    7.99328462659814
C        -1.37583022712200   -2.90641122586711    8.69070476780511
H        -1.77072752885267   -3.90393782422087    8.79419690215057
C        -2.14819285229978   -1.80534943966628    8.99781369276201
C        -3.50585375360959   -1.66988567977314    9.52659629946308
N        -4.40488647996406   -1.35481308537726   12.16544825570851
C        -5.16646358662377   -2.58468751730630   12.02841455680026
N        -6.40440778389051   -2.68606266317407   12.66510959263710
C        -7.13263941522690   -1.66988936158362   12.90834441421168
N        -6.83450844189145   -0.31877733606173   12.74206813026991
C        -4.21268929366308   -3.68926394396022   12.34584512140626
C        -4.39925955582448   -5.04080572237000   12.54004763286741
H        -5.38613349722269   -5.47341825060968   12.51416693890909
C        -3.26979416982261   -5.81015176689192   12.78811282664713
H        -3.38047682165884   -6.87137597902592   12.95247211655845
C        -1.99947946736797   -5.24512153533935   12.83105646096491
H        -1.14629668897632   -5.87914472291230   13.01821163327291
C        -1.81478197097802   -3.88391799449243   12.65673093423692
H        -0.84087901916280   -3.42507461142596   12.70693035506164
C        -2.94292861373546   -3.11391024228486   12.42564123248110
C        -3.12451334207985   -1.67891472916200   12.26387478516122
N        -2.07741957979197   -0.85802766011178   12.23427433317702
C        -2.23494277991702    0.43782281121698   12.18852809954730
N        -3.38712187044147    1.14332656377815   12.15951076182243
C        -5.19703841407909    3.40919658175691   12.03358527785831
N        -3.81861812084831    3.51058923579168   12.22812740564317
C        -3.05090143955847    2.49443215388765   12.21857916987793
C        -1.59486981320326    2.62990679455339   12.27169821250904
C        -1.08097884265994    1.33189217820026   12.22629076759769
C         0.27970777108879    1.09429654559154   12.21857482787158
H         0.66344482918824    0.08769261647967   12.18054938217261
C         1.11673539229092    2.20205956526645   12.25727047116450
H         2.18662575486272    2.05838583095976   12.25362172785445
C         0.60513237881266    3.49332641177232   12.30172879825801
H         1.28715870387095    4.32954668924240   12.33176056814832
C        -0.76448216508098    3.73096723673009   12.30777534227068
H        -1.17146544353974    4.72849910066754   12.33995414904796
N        -5.87137133813207    2.17934327687158   12.41318516482110
C        -7.04829450709909    2.50349981495512   12.92682201615072
N        -8.04695753714372    1.68259686180678   13.24297805310874
C        -7.91315308600699    0.38674585132318   13.14814672103954
C        -8.99052382453523   -0.50732868955061   13.56326586329191
C       -10.27801176557389   -0.26970323291133   14.00362039362316
H       -10.65290666688672    0.73687984853936   14.09392009447977
C       -11.05577246887009   -1.37746518575607   14.31552861825650
H       -12.06730991763342   -1.23378001121378   14.66390440583181
C       -10.55805764515649   -2.66875553667093   14.18903983671109
H       -11.19231282468963   -3.50495773358439   14.44162570098973
C        -9.26267342095979   -2.90641556235187   13.74420664152868
H        -8.86777531510784   -3.90394209948188   13.64071331127874
C        -8.49030601998212   -1.80535358790414   13.43711076516252
C        -7.16646549057207    3.93849298236633   13.13950621458785
C        -5.99335214376869    4.51374782868413   12.64699491956489
C        -5.75279796817454    5.86513597241040   12.76970482883229
H        -4.82915401469512    6.29755860235694   12.42093578190804
C        -6.73755255290232    6.63450201933647   13.37587441353401
H        -6.57850842964248    7.69556061072985   13.49550634354681
C        -7.92336164544743    6.06963832682206   13.83370933983801
H        -8.66730795479616    6.70367435416434   14.29138178439366
C        -8.15568095659481    4.70859692631030   13.72895928425663
H        -9.05916546895095    4.24994288798071   14.09622528658239

