89
CSD_code = TUSPOO | q = 0 | S = 0 | Stoichiometry = C39H41ClN2O4RuS | MND = 9
Ru        2.06890989341983   10.48680958043172    6.56828514254144
Cl        3.90861919442396    9.44112218613358    7.55345924144746
C         3.40122818924378   10.01803139271171   -1.57003194046275
H         2.35050701538441   10.19222867530628   -1.79407299999650
H         3.71344466815976    9.09257083398334   -2.04617919101896
H         3.97406998646532   10.83789833788269   -2.00298710647495
C         3.62149514079162    9.95937099191402   -0.08894835533750
H         2.07789115918755    8.11376489305410    7.36260350869561
C         4.36720502992888    8.93750597245627    0.48445030036251
H         4.79471189805052    8.17022109017100   -0.14446692818668
C         4.56038604660080    8.88836065442467    1.85415407911141
H         5.13068521226341    8.10076982219327    2.32011071479257
C         4.00757310275698    9.86484954757167    2.65635424678992
C         3.27320955735975   10.89528157285583    2.10334181979646
H         2.85729231553890   11.64391238800354    2.75864996914955
C         3.08386850189701   10.94384458621763    0.73544948199247
H         2.50881465507713   11.74702599110972    0.29633464991837
S         4.12936967863813    9.74186301162971    4.44062640084673
O         4.46813980704719   11.04755058458389    4.95046722167121
O         4.99892249639461    8.63142548002387    4.72660202101729
N         2.57311613905651    9.46859024032048    4.84566184998499
C         2.22611303134007    8.07063067341442    4.79189102896624
H         3.05913531277659    7.46758465927009    5.19459971888940
C         0.97834728793830    7.85411966823907    5.67808791113824
H         0.11684393385766    8.33357591491629    5.19488736500318
N         1.23650003618825    8.54979246931205    6.94799377378039
C         0.16400640513910    8.40801798030921    7.93454360447706
H        -0.22790487898982    7.38255154725268    7.91227150807189
H        -0.65398934389404    9.08632289058932    7.67055422648975
C         0.70603681414054    8.71904392265604    9.32854699817760
H         1.36222648603153    9.59176742485011    9.26035339904816
H        -0.11890573534192    8.95294053550494   10.00333812808800
C         1.52244117381929    7.55945711324426    9.91053520741430
H         0.87372661782418    6.69851759427497   10.08440084418923
H         2.30507813516233    7.27989205942607    9.20484446104335
C         2.18323801709279    7.99077154289922   11.18795950068278
C         3.35136650404533    8.74608499691514   11.12507988054043
H         3.76668638799092    8.99130483174613   10.15649059140071
C         3.97296017320802    9.16650140703493   12.28395638747107
H         4.88299730616332    9.74322039574509   12.23718269825940
C         3.42953065907044    8.84179264273143   13.52594493479606
C         2.25352734871805    8.09840102880669   13.58823560349904
H         1.84449381505975    7.85790596793010   14.55789051034621
C         1.63745032959412    7.67748094787236   12.42635925371169
H         0.72928750860605    7.09370118466703   12.48045314183433
O         3.60451663710836    9.03700298859775   15.89386005036814
C         4.06711945412821    9.25136598717784   14.79709018062657
O         5.23065733696488    9.88856048528826   14.61023852019718
C         5.92129478936709   10.29635634518435   15.78886537205562
H         6.11774078405261    9.41278910771036   16.40741895289148
H         5.27634581888710   10.97213947863064   16.36284115281489
C         7.21124569246550   10.97933339503384   15.37514909187271
H         7.82525909981135   10.29618642748226   14.79446190520493
H         7.76112956587459   11.28923059255409   16.25910125202362
H         6.99373267302944   11.85268354820789   14.76617841000992
C         0.72839958986042    6.37620563615645    5.84490367115363
C         1.60853441921940    5.58948225527369    6.58122269279582
H         2.47387358033083    6.03514327278169    7.05036449434044
C         1.39505962007210    4.22877369325550    6.70507255512435
H         2.08343605182659    3.63003120563850    7.28232559484890
C         0.30766723354341    3.63500222570943    6.08592918476437
H         0.14392110750206    2.57216735127522    6.18114867872312
C        -0.56360672176253    4.40857593567687    5.33916015031173
H        -1.40843654135428    3.95074547957780    4.84685059020325
C        -0.35507296689027    5.77196288245140    5.22150535637178
H        -1.03430937641595    6.37278286346047    4.63413820931547
C         1.95009475674780    7.64157864474814    3.37169066057340
C         2.47888289052261    6.46283738200837    2.86813526715849
H         3.08822538255055    5.83883957636844    3.50486208394481
C         2.23863362064881    6.09550971090275    1.55554466977193
H         2.65839179326768    5.17805221920082    1.17019937940896
C         1.47063722403353    6.90382134159447    0.73598276909600
H         1.29188931370354    6.62139816642039   -0.29102371030846
C         0.93396484893218    8.07819802958375    1.23609214623978
H         0.33410073687805    8.71267685515101    0.60007020915086
C         1.16830206267090    8.44129519668259    2.54866332127897
H         0.76885481149263    9.36279867803121    2.94569149361888
C         0.97270832380881   12.10396291860804    5.40653913305390
H         0.55830972814478   12.09082021967976    4.40532670988895
C         2.25892442852257   12.65795657848113    5.63309243069905
H         2.83943916339736   13.04501082522266    4.80644968741135
C         2.78293170390290   12.70676699049690    6.92010920473165
H         3.77094679805136   13.11705889233033    7.08496964753056
C         2.00195589694495   12.27089872936636    8.02702164283294
H         2.38730113342023   12.38394436532016    9.03408689733694
C         0.68590827239440   11.83832922835332    7.82138769138143
H         0.03777101938985   11.63784303183051    8.66763428398511
C         0.18032013143306   11.71142540741861    6.49936595412071
H        -0.85325490174580   11.42007862236226    6.34381755698307

