34
CSD_code = TUSQUV | q = 0 | S = 0 | Stoichiometry = C17H8BrMnN4O3 | MND = 6
Br        9.83742323917518   11.29927813275208    9.13784715541686
Mn       12.03453189180865   11.29964274473416    8.00928440786140
N        11.18716047643393    9.98153654490893    6.70718752046056
O        12.95508425584162   13.29576348999993    9.95380847577080
C        11.19085733589132    8.65476086581199    6.74158516544109
H        11.80482968712565    8.18714184147121    7.50103509033506
C        10.44744062910156    7.86702655515619    5.86863424433041
H        10.49081495144386    6.79367760225428    5.96015852774839
C         9.66283120370228    8.46839975896721    4.90685789741692
H         9.06442877672687    7.90389092249162    4.21013574086358
C         9.64577258758765    9.86347999238671    4.84627935090507
C        10.42305618549950   10.58094019539834    5.77078413474062
C         8.85759704491240   10.59414817430880    3.88270307218090
N         8.13205418569231    9.90989074512948    2.99154299103308
C         7.42218692255644   10.59976651661924    2.12776510462634
H         6.84174549757453   10.02891750565338    1.41668416793193
C        12.59701650627191   12.53779228695176    9.16970440597499
O        14.59949695437610   11.30114758681830    6.60183640979573
C        13.58484015792996   11.30039672663041    7.14321801108056
N        11.18707684268951   12.61769831047335    6.70730983444361
C        11.19085718837746   13.94447788059443    6.74169866637605
H        11.80467728404947   14.41205553825198    7.50130157431480
C        10.44774534905984   14.73225206289870    5.86852770341828
H        10.49122164412351   15.80559920821404    5.96001551361197
C         9.66323431518933   14.13091894365358    4.90664437900500
H         9.06505511777459   14.69547285996247    4.20976925637412
C         9.64599151791204   12.73583797227159    4.84615613847030
C        10.42310364027657   12.01833407011331    5.77077230943002
C         8.85777393863513   12.00520612410181    3.88258387270265
N         8.13255789304037   12.68948965711113    2.99117628933444
C         7.42250849039589   11.99964182083436    2.12752689740678
H         6.84244912791299   12.57050884110288    1.41614915082081
O        12.95547046961548    9.30334785398984    9.95343279735800
C        12.59720869129971   10.06136066798428    9.16948374302350

