31
CSD_code = TUSSOQ | q = 0 | S = 0 | Stoichiometry = C12H16AuNO | MND = 4
Au       -0.09837913159489    6.80418408314615    6.96886290191337
O        -0.04877400781835    8.83273249322678    6.60289760946324
N         0.40666560535858    6.43241590255200    5.01845965571444
H         0.51219122915116    5.47398237574154    4.70781521569747
C         0.22157142591879    9.36388117756589    5.47663012493147
C         0.17746016978705   10.85003902190899    5.45646528096032
C         0.60276281045972    7.32453704613325    4.08462230976818
C         0.51793664891555    8.70704618028688    4.28951505074433
H         0.68097764070237    9.32287986259803    3.41889827688164
C         0.94482184116130    6.87568995829780    2.68999659227889
H         0.97085302700091    5.79028138456337    2.61675074342275
H         1.91791314831926    7.27024121895993    2.40288817063670
H         0.20824928553378    7.25880275555742    1.98625026244164
C         1.04551938568638   11.61119641248122    4.67863808608876
H         1.79675344985578   11.12616135169019    4.07336403236723
C        -0.74699491157870   11.49954901773852    6.27118041163968
H        -1.40516925363331   10.90302385625034    6.88491687123096
C        -0.15391724400813    4.85189413370287    7.38603857684609
H         0.85558394641934    4.46391580951559    7.47375056203230
H        -0.64506950165204    4.31714774303347    6.57918085452603
H        -0.67668541878915    4.61099529849273    8.30212743418405
C         0.97370627575745   12.99204580416419    4.70382304212545
H         1.65562548413417   13.57515645765734    4.10193409402078
C         0.03621390536478   13.62910987441529    5.50011504818326
H        -0.01864593377601   14.70778442381861    5.51317783666918
C        -0.82265478415113   12.87913123423819    6.28653709348798
H        -1.54957363772967   13.37165251556310    6.91565251294391
C        -0.58290551088813    7.17884808066381    8.87735556055495
H        -1.58770224264712    6.84450678417949    9.11234561103356
H        -0.53946395903999    8.25051891369470    9.03911738570883
H         0.09623025778075    6.70504882816968    9.57729279149928

