71
CSD_code = TUSTOR | q = 0 | S = 0 | Stoichiometry = C26H36CdN4S4 | MND = 6
C         8.04617359868329    4.84245082780579    2.34077521643142
C         6.84672835289352    5.33079198464334    1.52496809920134
H         6.32212132233349    6.12787426358372    2.05602773634883
H         6.14953324602793    4.50355769048471    1.38022606609714
C         7.32842459589760    5.85694429376022    0.17603264652328
H         7.79520178240220    5.04252315973779   -0.38163005081192
H         6.47651608867877    6.21678915381595   -0.40429563495589
C         8.33979696516142    6.98283292966755    0.37076730587313
H         7.85692418063207    7.82116488915883    0.87886354321484
H         8.68986203409741    7.33846086955398   -0.60017946003105
C         9.52418750732212    6.49990552180194    1.20284875841796
H        10.23383312141206    7.31644859889699    1.35148183353152
H        10.03966827004991    5.69916244489149    0.66862080264656
C         9.04985423890649    5.97722670259979    2.55603916474889
H         9.89681045560678    5.60503395914098    3.13584374320275
H         8.58943115687709    6.79460427631792    3.11491772268959
C         7.83943653054738    2.93751407082181    3.85671057980740
C         5.53255607022654   -3.97682082877755    6.85005826812919
C         5.76359906416968   -5.48461990881094    6.73208389481630
H         6.68048664023863   -5.66653681395983    6.16819629698361
H         4.93726935885113   -5.95863923671054    6.19823295024214
C         5.87240520501451   -6.09261344664367    8.12781131991409
H         6.02816441361555   -7.17051014350169    8.04888714726179
H         6.73621599917972   -5.66458792192068    8.64045455644089
C         4.61052227048601   -5.80563285260763    8.93635222315845
H         4.70656022257591   -6.23210036577115    9.93668736401940
H         3.75330277604746   -6.28014927124896    8.45232513714602
C         4.36938403153512   -4.30222848298755    9.03495193769765
H         5.20013388573745   -3.83585674903252    9.56825093842348
H         3.45547937070219   -4.10683178615097    9.59947200017677
C         4.25627114484807   -3.68606023873784    7.64356604482575
H         3.38559939172075   -4.10432190825191    7.13397299318675
H         4.11862173026848   -2.60593963675343    7.71933910223481
C         6.37901479129617   -2.34723598137521    5.23942559725351
C         9.62041344694549   -1.76621323899013    2.15447000636257
H         8.60604179104519   -2.12995302973206    2.03547259801982
C        10.55132525651356   -1.87873946861539    1.13204258624148
H        10.28024640779197   -2.33382190098830    0.19278281080274
C        11.82458896605893   -1.37688753581534    1.34587349565255
H        12.57410280447577   -1.42347932369400    0.56938007825315
C        12.12293113476385   -0.80563099426479    2.57107348143999
H        13.09945324498909   -0.38534350768695    2.75340361713927
C        11.12998495502596   -0.74878844976996    3.54803303678614
C        11.37332352472247   -0.15142782701426    4.87630249348634
C        12.64135971013545   -0.12410354890249    5.45671726683670
H        13.48541949069929   -0.57212932013285    4.95635587225684
C        12.79567197712398    0.46226926466987    6.70119637750758
H        13.76722365278784    0.49197610570434    7.17258269876512
C        11.68690134475329    1.00446559604453    7.33110999483783
H        11.76760466549995    1.47375808915268    8.29860912592136
C        10.46005634966479    0.91988795482977    6.68892330776480
H         9.55764420736178    1.32057919988035    7.13672385116483
C         6.94436148661480    5.04151538738750    4.57234405261538
H         5.95721717907796    4.62146725382777    4.77934605750121
H         6.83480163528958    6.05469198619870    4.19999936333077
H         7.50165022629055    5.05762614513300    5.51180564408001
C         4.51490321024925   -3.70321765515570    4.58630425572611
H         3.91674228701879   -2.83395710802166    4.30307675961027
H         3.86773146970818   -4.46402651374148    5.00987110496637
H         4.98695971568324   -4.09076964550789    3.68051189475125
N         7.63700257218558    4.23428902993047    3.59446259323673
N         5.52061771050583   -3.32460003397853    5.55213470242686
N         9.90114348553972   -1.21703173668262    3.32346840608095
N        10.31264457775701    0.35765355517121    5.50271974978295
S         7.28785475116141    2.32023893994256    5.34449207921576
S         8.63909812263860    1.92277036971119    2.75157242684550
S         7.58471218790378   -1.84196898776996    6.32725518371587
S         6.25288308314084   -1.62169393954380    3.70244200629726
Cd        8.13606731984939   -0.01095847286155    4.52111078709864
H         8.54469287690303    4.05067719998764    1.77215685839346
H         6.37793335812411   -3.54502390196682    7.39528753022500

