73
CSD_code = TUSTAD | q = 0 | S = 0 | Stoichiometry = C28H33ClO7RuS3 | MND = 6
Ru        6.69556533987835    2.09108256260977   14.85604979191147
Cl        5.99877294201203    2.48589941646523   12.66903918209384
S         4.80569595429287    0.96160347767009   15.23983009036724
S         7.41840723243749    1.74064431473865   16.98310494623758
S         7.87491354182553    0.37707172215336   14.04939270699533
O         5.00730317017975   -0.41195389383955   15.70007000133253
O         6.68076854886881    2.57615575070837   17.92740682990456
O         8.78249323874117   -0.24192706012279   15.01047328908811
O         5.79564517725793    3.87666482292643   15.44005934051935
O         8.34897179226199    3.37137859880915   14.64926011087561
O         8.46705206082373    6.93024548297001   15.18519661043460
O        14.34456805437236    5.35962902477716   13.62159447272963
C         3.83423335623253    1.81138727549914   16.51399975740219
H         3.04820863868699    1.14979728168112   16.85920997835435
H         3.43768726669335    2.71528338158030   16.06724710318062
H         4.51102365572454    2.07112813760827   17.32492346868505
C         3.51574155452406    0.88451804810833   13.95893285179511
H         3.89063421264032    0.27248479326899   13.14656950808631
H         3.34990151087339    1.89475375571898   13.60445088866378
H         2.62325686882910    0.44718427227655   14.39050788607151
C         7.37412751317534    0.05907851420900   17.66598475172225
H         7.55397430851233    0.12890790321958   18.73216453698193
H         8.13363628173685   -0.52031805889620   17.15687300093153
H         6.39372243056455   -0.36096375770129   17.46561328871659
C         9.18791066770116    2.05262831566924   17.26406615088081
H         9.39898125943193    3.08348510749121   17.00124869340553
H         9.72516948784134    1.37350267010127   16.61215491238427
H         9.41092483518780    1.87285342481075   18.30906080891400
C         6.96605631261019   -0.96040126487729   13.22335727606145
H         7.67191813137905   -1.70144361140636   12.86754659822594
H         6.41252403802932   -0.50581414004567   12.40908021818023
H         6.29270611809803   -1.39126495889160   13.95829993359172
C         8.89360876563848    0.90573147420938   12.64690959465545
H         9.48475030181644    1.74928261521095   12.98961557377675
H         8.22047972363529    1.22722239420465   11.85994825555325
H         9.52889617446250    0.08325611894503   12.34030641971430
C         6.62001835563810    4.82955688597784   15.35153014830436
C         6.23647181668705    6.18260119194664   15.65472003300750
C         4.93419960733446    6.52538308089955   16.05087640966115
H         4.20763066400478    5.73241825065623   16.13241967651982
C         4.61288271866353    7.83006060392635   16.32259865650455
H         3.61126349131482    8.09231897491248   16.62663576112743
C         5.58353151680483    8.82960718522195   16.20642464407510
H         5.32241925662985    9.85480723606961   16.42101051378333
C         6.86576026435903    8.52092820372398   15.82344284569814
H         7.62619048938917    9.28023508248507   15.73112770642372
C         7.20667773096915    7.19143526408222   15.54408494504070
C         8.87983342372400    5.66685776016372   14.89333757480136
C         7.99414298165193    4.59088432344431   14.94251437787182
C        10.28998851130756    5.59173826629072   14.54881135967702
C        10.96148112577572    4.37110679450461   14.40077157051241
H        10.41770067529520    3.45135580518142   14.53410941046872
C        12.30045907253672    4.33603635370416   14.09415233792762
H        12.81737782024502    3.39555154189835   13.98471719233846
C        13.02969847999065    5.51536528951766   13.91869621400676
C        12.37247397079901    6.73506639461226   14.05900688168865
H        12.89689927579029    7.66856488056771   13.92634515568263
C        11.02848572517458    6.76603986540758   14.37053223962218
H        10.53670428418745    7.72039028137989   14.47388798372829
C        15.14344301485153    6.50675592065416   13.44207324505516
H        15.12111958752932    7.13230250762293   14.34748800289917
H        14.75909390290818    7.10886223367180   12.60292750665721
C        16.56805053190198    6.10826712932285   13.14973187543891
C        16.91764052335847    4.79031618946615   12.89871694003515
H        16.15447556593011    4.02895642618826   12.92188876794143
C        18.23401692014061    4.45838023374204   12.62627134190740
H        18.49705376311657    3.42846928103518   12.43453389284514
C        19.20935439012019    5.43909443921758   12.59819636851268
H        20.23567019913604    5.17917709170141   12.38518164697725
C        18.86428802016751    6.75776028013859   12.84544364133089
H        19.62079406652951    7.52843377884311   12.82539733414321
C        17.55120904311507    7.09048618702962   13.12114288512357
H        17.28366874595777    8.11965487294476   13.31600408429645

