93
CSD_code = TUSWUA | q = 0 | S = 0 | Stoichiometry = C44H38N6P2RuS2 | MND = 6
Ru        4.11935467535509   -5.68111576730686    7.52212858757578
S         6.84769725000953   -1.86422896917001    8.02355087392200
P         5.86459688794388   -6.99426713977070    6.67307200817977
N         3.40742024756828   -5.39898002074218    5.62676449147397
N         3.41979584243093   -4.16943900498531    5.11429931295907
N         5.18953499912258   -3.95439395122349    7.31503351089816
C         2.84980579150716   -6.18229243234207    4.71816118788050
H         2.70035202660208   -7.23023166979923    4.89842829662518
C         2.50156796462389   -5.43129363064173    3.58973723169408
H         2.03339749930824   -5.78811772042290    2.69642963944049
C         2.88941683587256   -4.14464011648486    3.87835515956594
H         2.81891626640147   -3.24318083386451    3.30451030189755
C         5.89605257961730   -3.07692266686871    7.65769794503973
C         6.62671772768011   -6.56655154996513    5.06711102259063
C         6.59427517938157   -5.24429158943895    4.64077028269407
H         6.10599985384103   -4.50295068201852    5.25753993719616
C         7.20664186861534   -4.87573116541213    3.45620658113154
H         7.17530626271505   -3.84561291997842    3.13254061866934
C         7.86481840683328   -5.82448090771275    2.69294689127032
H         8.34131793065383   -5.53997005215659    1.76641368701471
C         7.92290698385815   -7.13983081450182    3.12619100576315
H         8.44980527614345   -7.87876695921300    2.54000310923287
C         7.31379581447427   -7.51177469104804    4.30961141147329
H         7.36810185425201   -8.53846142021425    4.64270867115595
C         7.41874565431247   -7.12776855261518    7.62908448460709
C         7.84172372540789   -5.99503092202246    8.31763398061519
H         7.23452154818947   -5.10168267995024    8.29165528123768
C         9.03503392897327   -6.00482656014540    9.01589107953922
H         9.35067053201123   -5.11999391614185    9.54805306003858
C         9.82190327323795   -7.14411895980859    9.02424805598431
H        10.75286412934378   -7.15675142135419    9.57162762690458
C         9.41947250002109   -8.26587578668065    8.31747151968684
H        10.04034943700429   -9.15017922407477    8.30798908895067
C         8.22773890429391   -8.26029076623423    7.61589895879833
H         7.92886050653802   -9.13891686406086    7.06216104484349
C         5.37383549087277   -8.73034335572806    6.42277804254002
C         4.79975988960397   -9.12545467712162    5.21777966602469
H         4.74740342945475   -8.42268897881263    4.39640174386663
C         4.30453947031210  -10.40742883761268    5.06707941594490
H         3.85845584157798  -10.70355166621532    4.12892947935004
C         4.36251766919580  -11.30479548313783    6.12000941911521
H         3.96333423167227  -12.30107044489831    6.00493965301515
C         4.91561498505625  -10.91453194410160    7.32801568715081
H         4.95068201694008  -11.60790179034217    8.15607057541106
C         5.41170094611743   -9.63348495451578    7.48251480475006
H         5.84766638893174   -9.33391500085943    8.42812354310298
H         3.87019379816676   -3.42813809565159    5.64522052388194
S         1.39117394660092   -9.49851593697332    7.02234342428522
P         2.37450731545083   -4.36696172139887    8.37097153204440
N         4.83129091421112   -5.96265576898811    9.41755296620490
N         4.82013567997696   -7.19253352920193    9.92924258876263
N         3.04970858346995   -7.40802788735710    7.72910314021589
C         5.38845622232850   -5.17942249075194   10.32649706666415
H         5.53710953665209   -4.13127890453002   10.14676565272886
C         5.73738470347284   -5.93078048995101   11.45447682106310
H         6.20538448733720   -5.57409625726009   12.34792480157079
C         5.35060783115138   -7.21759394749148   11.16513545419044
H         5.42191113597060   -8.11931962404663   11.73847095640963
C         2.34261062997495   -8.28546329019769    7.38762165289452
C         1.61249167036560   -4.79436305043293    9.97706437793875
C         1.64579144950364   -6.11635343341896   10.40419699221977
H         2.13449278414895   -6.85773814907987    9.78783192783940
C         1.03374474455350   -6.48460077557350   11.58902559571440
H         1.06574633239970   -7.51450606998960   11.91330462378842
C         0.37502789653699   -5.53581059663066   12.35176217518356
H        -0.10124304959163   -5.82007316646949   13.27849085036289
C         0.31608991592726   -4.22075015517380   11.91774866749423
H        -0.21120709895237   -3.48180154334966   12.50356299883609
C         0.92487313823633   -3.84911896473163   10.73405614443712
H         0.86997029440646   -2.82264964752169   10.40038644069108
C         0.82024825089234   -4.23361881362745    7.41509285540915
C         0.39692073138795   -5.36667420777977    6.72725851238277
H         1.00394415584610   -6.26012910586285    6.75371032963487
C        -0.79649610207596   -5.35704262545284    6.02917163693609
H        -1.11243675523820   -6.24213048018692    5.49761049877366
C        -1.58311315369228   -4.21757949104884    6.02023025268953
H        -2.51416495971686   -4.20507232123622    5.47299694289753
C        -1.18030428466623   -3.09546647315569    6.72622292005679
H        -1.80096141891272   -2.21100171657262    6.73521092324250
C         0.01152330900017   -3.10089138506586    7.42764931290477
H         0.31071449959921   -2.22195498288120    7.98072558661796
C         2.86505871941801   -2.63077926300587    8.62086106485820
C         3.43869553875088   -2.23511034225996    9.82586611527157
H         3.49078122090632   -2.93747929895148   10.64760065496548
C         3.93396581227568   -0.95309893111771    9.97608429870680
H         4.37963539449164   -0.65650460202068   10.91428059122086
C         3.87647455972815   -0.05628026647687    8.92266402831049
H         4.27557825514252    0.94006188957850    9.03741567064919
C         3.32387681584563   -0.44714932755271    7.71462099969922
H         3.28918120290768    0.24579519329256    6.88619375083300
C         2.82772762494144   -1.72822186412890    7.56061671055197
H         2.39226816391773   -2.02834020112165    6.61494655840453
H         4.37033903307429   -7.93394842547805    9.39794443274837

