80
CSD_code = TUSWOV | q = 0 | S = 0 | Stoichiometry = C27H46N6W | MND = 4
W        11.82764181975823    7.65589393736970    3.81278565740521
N        11.09656562014782    7.57410595861652    2.16281853490483
N        10.68774587446863    8.42901292323180    4.95144312049248
N        13.25027567336981    9.21855982730878    3.87807894555155
N        15.82389910651679    4.86118919599140    1.93743446777575
C         9.55751485784686    9.26137456843662    1.40940369258910
H         9.41765468565023    9.51787745333898    2.45860647269324
H         8.64166716821294    9.45087248056663    0.85403190102653
H        10.35529304751910    9.88341084093076    1.00696989869356
C        13.60426574566648    5.79471254352034    1.66604514797058
H        12.85838326534685    6.12384824036899    0.93999483927689
H        13.18712072753317    4.96095378873544    2.23818387334813
C        14.20977173292452    8.14580039080156    1.91030509807372
H        15.16712229502427    8.09201572029248    1.37511011392370
H        13.40934919687317    8.34326089114688    1.18227784743269
C        14.90257912806764    6.46051075710152    3.53491579079249
H        14.48575132226584    5.64339595600041    4.13431209765570
H        15.17067310694986    7.29655448753126    4.19170137953114
C        16.80709773697217    3.93375471281060    1.59607729733780
C        13.54763026099907   10.21998924619342    4.75684982631152
H        12.90748725563584   10.42388752566266    5.59887165310571
C        17.99483488834657    2.57941968425168   -0.01321200065336
H        18.16996561476008    2.30522062853179   -1.04360416875513
C        14.86141321134968    5.29006450652569    0.94573607090500
H        14.57680416369710    4.43275265121715    0.33333308337911
H        15.26948667479233    6.07063310600689    0.28272376509719
C        17.05428609306650    3.55089854026761    0.27656924936440
H        16.52479584319940    4.02033925458282   -0.53805076533774
C        14.25311625983364    9.22218411237314    2.94385034920174
C        16.16566795632406    5.94653412022355    2.83492905821155
H        16.65267361768353    6.76759832899259    2.28221252706547
H        16.87270252026288    5.59876348776974    3.58738938475583
C        18.71651014096531    1.97029904917326    0.99687245036666
H        19.45271698191794    1.21581210433347    0.76578576174602
C        17.53701955352227    3.30312058612080    2.60865027335330
H        17.35080967218143    3.55603268294409    3.64183418564957
C        18.47931850124904    2.34086105125734    2.31053738178111
H        19.02786460415526    1.86864517140398    3.11268455545332
C        15.16998928446776   10.20651433150661    3.22456326875808
H        16.05580609020821   10.44067319615923    2.66441291043889
C        14.70852188841690   10.85289415894217    4.38969321957756
H        15.17919590132399   11.67625613379089    4.89199724240736
N        13.85471926355827    6.89027226147586    2.60199513118885
N        11.88960234286970    5.70433214119370    4.37938312517595
H        11.47947569545230    4.95864541635439    3.80779935077033
C        11.91190126719843    5.26176738685359    5.76347120849745
C         9.74054378330426    9.15202244165440    5.71658833957112
C        12.73977746519748    6.28136384546380    6.56753225849632
H        13.80553978417802    6.14944425875572    6.37892688998656
H        12.56672591776593    6.16448735516216    7.63536696765039
H        12.43974810735640    7.29701662172463    6.26468070883497
C         8.30961297895408    8.63699321146167    5.44545026293846
H         8.04757273836715    8.80946266993136    4.40476650714627
H         7.59488675254537    9.15426174459556    6.08171185420663
H         8.24863527660450    7.56900351405806    5.64426943751446
C        10.03718589901197    9.02538156479570    7.22865689159439
H         9.92953450069040    7.99356535223989    7.55344056529677
H         9.35135908561510    9.64602294869462    7.80095280919561
H        11.05560602714151    9.34816226029545    7.43527801824462
C        10.47339524880569    5.20355267324150    6.31397264770173
H         9.99644952101079    6.16162287233231    6.10636635915095
H        10.45875511004624    5.00644337591433    7.38342874756116
H         9.90935012011890    4.42156652407360    5.80812114900165
C         9.79620139263533   10.64903215378233    5.33690207921561
H        10.74129341693438   11.08357296130649    5.65068970588257
H         8.98396082944179   11.19194194004043    5.81535336472347
H         9.71687524414074   10.75891268606552    4.25776010136205
C        12.55479795255286    3.86738429972732    5.88231105048577
H        11.96106574951340    3.12687792363579    5.34904414822057
H        12.62011054064770    3.56813264035322    6.92572888735162
H        13.55830343522681    3.86769441466019    5.45925047162183
C         9.96576110089517    7.77665706466274    1.33289032837646
C        10.25967611391674    7.40248475240053   -0.13438719809406
H        11.06541267524178    8.02119673874364   -0.52488613331232
H         9.37477673410542    7.55442665756146   -0.74768732049455
H        10.55705060242006    6.35765862370227   -0.20261596585748
C         8.81803336519134    6.89322062781191    1.86970675526009
H         9.02707679083765    5.84691154933488    1.65568599655513
H         7.86601109209872    7.16371641318932    1.41919504862681
H         8.77432698898923    7.02328978041637    2.95327399175024

