53
CSD_code = TUSXOV | q = 0 | S = 0 | Stoichiometry = C24H16N4O6PdS2 | MND = 4
C         8.22270886362397    1.08350296102455    0.41385712959094
H         8.88245398751561    0.82411307301744    1.23510121530048
C         8.67995999877249    1.14425876599134   -0.89128005420404
H         9.71235415224610    0.92571211156071   -1.11060394361612
C         7.79169369824678    1.48867966062271   -1.90214615008858
H         8.11731279013838    1.53968183302315   -2.92949414362923
C         6.48041515245137    1.77398293712998   -1.56786662432021
H         5.77549391623960    2.05769953783752   -2.33210827857272
C         6.08196003441849    1.69513361765264   -0.23441162588749
C         4.73339907643433    1.98223142465280    0.25334817593458
C         3.64633568907032    2.30891791443748   -0.55575894077048
H         3.76190012058116    2.37248776437249   -1.62537436056371
C         2.41466636245611    2.54711216670714    0.02634708945417
H         1.56293937638848    2.80597497001874   -0.58326399604494
C         2.29464438465830    2.43882635206253    1.40597134886269
H         1.34901378231527    2.60604829630446    1.89538535258387
C         3.41194539471654    2.11093875313118    2.15449422538903
H         3.36296178732123    2.01051008697137    3.23361943744245
C         5.60783131476258    2.03122751066611    6.89668164381286
C         5.59789795514436    2.05467243199160    8.26990618505004
H         5.46193846029579    1.14546854613289    8.83409050584771
C         5.77983582215516    3.28162977726345    8.90044653577439
H         5.78533786258003    3.32998125004034    9.97940131520656
C         5.96418475001168    4.43927387793651    8.15939293863507
H         6.11119773597393    5.37947230399738    8.67056939864372
C         5.97318257398146    4.40312984841288    6.77246332840589
H         6.12842092757707    5.29189816616503    6.18118749835869
C         5.78568010532501    3.18245963186992    6.14637141858720
C         5.82259796750175    2.90395558460712    4.68945577635190
C         8.49036164483810   -2.86841863827649    4.59066112076873
H         7.93486350527985   -3.52228347527223    3.93682761631050
C         9.27725319565857   -3.36085674921451    5.62181044769259
H         9.34571371758865   -4.42731678274673    5.77948810376081
C         9.96976859185786   -2.50144911479840    6.46152851684587
H        10.56954718774571   -2.90484180998915    7.26405644150689
C         9.89300784225693   -1.12288984613474    6.28893462082830
H        10.41964007033324   -0.44295561143474    6.93992487213829
C         9.11175894519605   -0.64699890748353    5.26444910146576
C         8.41998693725469   -1.49663134032766    4.41621077284667
C         7.59658203974685   -0.75678274903278    3.42820144971046
N         6.95518375132229    1.33892186650039    0.73456645690326
N         4.60333726997562    1.90063274204617    1.59675500055994
N         5.50097926539234    1.63527139278466    4.39720318900664
N         7.82976640224733    0.56370821234932    3.44614571786993
O         6.08033559992868    3.72901928987078    3.80965337784496
O         6.41056972732076   -0.31709134485926    5.78787268439224
O         4.03528388109683    0.20081049435197    5.82679647765048
O         6.80095752772544   -1.26624377332328    2.63533235603205
O         8.07894700680980    1.83647231237346    5.65770867485064
O         9.98953237720878    1.59088484202446    4.17409300961363
S         5.38756904425393    0.68989742790801    5.73644862301274
S         8.77968660248700    1.01834950308691    4.70753268967734
Pd        6.22070382313068    1.36041090059169    2.53881627803625

