105
CSD_code = TUSXAH | q = 0 | S = 0 | Stoichiometry = C52H42N6P2RuS2 | MND = 6
Ru        2.10539468169871    3.59498442875076    5.41301846683410
S        -1.99039771981413    3.76849416123927    7.65681852561512
P         2.41633258552160    1.27199350974506    5.54401453641841
N         0.63768481565166    3.74869363025136    6.80197093438152
N         0.60006821207243    3.24948089332663    4.01110146743093
N        -1.28361221169591    2.43681816917521    3.16930654225562
H        -2.17526554738523    1.97171558664445    3.14035178194809
C        -0.48878325750602    3.78877580643099    7.13648731466838
C        -0.50211114373821    2.58906543155882    4.26378232343767
H        -0.79237187327827    2.20698849239215    5.22490014608692
C        -0.63541518906195    3.03601754031577    2.12184632872790
C        -0.95644430937056    3.18247291736184    0.78068015454820
H        -1.87462422890691    2.78398620545976    0.37733428051792
C        -0.04974801673906    3.85794994416346   -0.01001059058660
H        -0.26072354768020    3.99376998844366   -1.05996816944317
C         1.13813409824118    4.37057311386535    0.51719562122589
H         1.81917862257770    4.89189981897252   -0.13802546842418
C         1.46331346512221    4.22736544345144    1.84898613564861
H         2.38503685156366    4.61373211521594    2.25203903180747
C         0.56269442320886    3.54931049432061    2.66559241323641
C         1.66222665971340    0.40925815465346    4.11777250480839
C         0.73089740086785   -0.61458977210220    4.25540226477203
H         0.46563820448023   -0.97995613942558    5.23719139287928
C         0.13668288957736   -1.17066250183885    3.13488860669457
H        -0.58409972993588   -1.96708660223799    3.25344039922518
C         0.46021964245387   -0.71168225346318    1.86946881395598
H        -0.00793750617044   -1.14703579891587    0.99873352099733
C         1.38549238816988    0.30988193440229    1.72378620038693
H         1.63832099392493    0.67843271041682    0.74017660040424
C         1.97936784197854    0.86949074574573    2.83896597798551
H         2.68441059043737    1.68307437641704    2.72933422937312
C         1.86153659786255    0.18990178943640    6.91219856976744
C         0.67469792698060    0.49911588538633    7.57067309932285
H         0.12418698874602    1.38447075662089    7.28758820310821
C         0.20208104888850   -0.30960862561889    8.58822949050863
H        -0.71782373079657   -0.05223883191531    9.09229155349149
C         0.90951389431079   -1.44180247376318    8.95626800374599
H         0.54549313381055   -2.07381844881024    9.75296774958393
C         2.08431586746125   -1.76439014280752    8.29649411515185
H         2.63402712095114   -2.65202387409991    8.57483810350363
C         2.55912611318152   -0.95767417299936    7.27804699040566
H         3.47239149230851   -1.22194021308543    6.76423574790259
C         4.17615594877390    0.78734591507017    5.43521246502226
C         4.77541917493859    0.25033965388242    4.30292817636387
H         4.18600577171717    0.02347031848702    3.42691892674993
C         6.13764646425580    0.00313828168122    4.28890679481008
H         6.59525102744085   -0.40329331445530    3.39896026196361
C         6.91408938830682    0.28815218879418    5.39774243361132
H         7.97888177843845    0.10958902374182    5.37415663692438
C         6.31959499731375    0.80392978713573    6.53822947657765
H         6.91659435191382    1.01803054979759    7.41385639223824
C         4.96072565814703    1.04883353522266    6.55808639087756
H         4.49123817839113    1.43024436372011    7.45566728823563
S         6.20246435614417    3.41697542989656    3.17124154133286
P         1.79550161135955    5.91794460205116    5.28170398337578
N         3.57421014696235    3.44069515727543    4.02533955921954
N         3.60985239352034    3.94127665415922    6.81505498323627
N         5.49163687953965    4.75686756768070    7.65827150779164
H         6.38231500491452    5.22378450058640    7.68804546016128
C         4.70156644073500    3.40098882472540    3.69367380791109
C         4.71086778271941    4.60399094496564    6.56329719165478
H         5.00067942706580    4.98727821602468    5.60249708128081
C         4.84415820248948    4.15559033484653    8.70500587861824
C         5.16489762514758    4.00852591093488   10.04619086612094
H         6.08212729464476    4.40840307623475   10.45032279446200
C         4.25919811956341    3.33054410576104   10.83589633032995
H         4.47002996892880    3.19416214629538   11.88581208759348
C         3.07251466094643    2.81610951364613   10.30777451426984
H         2.39217131207794    2.29292011333108   10.96223847356357
C         2.74759900343936    2.95990532882830    8.97598276495257
H         1.82671100467951    2.57224490490902    8.57226637400393
C         3.64726746788649    3.64038322402618    8.16034727261289
C         2.54569819474422    6.78134358225624    6.70975754209663
C         3.47519426056868    7.80712984806575    6.57376348602818
H         3.74117806151498    8.17331992756982    5.59248594023010
C         4.06671868943763    8.36415750371571    7.69520598274454
H         4.78606730126332    9.16204875834030    7.57780259200314
C         3.74245560324723    7.90416005520198    8.96007154175284
H         4.20859904380243    8.34018339301186    9.83155056721675
C         2.81922809972671    6.88054242531444    9.10415359461994
H         2.56597520644215    6.51101274334780   10.08728704108882
C         2.22800345312876    6.32000604263047    7.98800869400645
H         1.52482110137615    5.50469598927728    8.09662013639055
C         2.35285651461895    7.00111046223495    3.91536766497269
C         3.53721666008150    6.68964965788115    3.25364177572353
H         4.08496656470397    5.80129164856841    3.53258608437179
C         4.01114486534053    7.50038183078855    2.23821833149056
H         4.92917324301628    7.24135252918203    1.73159541290045
C         3.30765996785200    8.63681862412527    1.87583202432926
H         3.67283732899830    9.27048261740912    1.08096650536308
C         2.13540296279377    8.96171691074490    2.53907783861970
H         1.58884784452089    9.85268382373025    2.26520163146517
C         1.65926726332039    8.15301242559652    3.55526207642196
H         0.74804914569641    8.41888583330410    4.07191013968194
C         0.03499519771433    6.40092189480689    5.38531588809993
C        -0.56973258300022    6.93021471153662    6.51831021339545
H         0.01578630985492    7.15279833596671    7.39801516703986
C        -1.93237982591009    7.17524790270607    6.52816677303927
H        -2.39431866537620    7.57553616912734    7.41864749149554
C        -2.70376960712039    6.89556584610189    5.41444177495652
H        -3.76894351469950    7.07227605574199    5.43470201622969
C        -2.10377466228086    6.38752150557223    4.27334549128963
H        -2.69678373106982    6.17772906583912    3.39396322457930
C        -0.74445405283536    6.14486428755061    4.25762755770023
H        -0.27066422355647    5.76946254038554    3.35975616846807

