53
CSD_code = TUSXUB | q = 0 | S = 0 | Stoichiometry = C24H16N4O6PtS2 | MND = 4
C         6.64122989606187    4.98333899531333    7.34387298538134
H         7.29435861391191    4.69977680202587    8.15805658825890
C         7.06500577671678    4.92707315413697    6.02872832479871
H         8.06282239994464    4.58970588477486    5.80066372660968
C         6.19095602231561    5.30818503269167    5.01891337853050
H         6.49203283655413    5.27032032201143    3.98372368998397
C         4.92478333310883    5.74407083873606    5.36556540755124
H         4.23015270169042    6.05540691098716    4.60279822715793
C         4.55512788408570    5.77653889226335    6.70757864393725
C         3.25547547954550    6.21954968619044    7.20948205105012
C         2.19675907832445    6.65120700356766    6.41479556796302
H         2.30001153752433    6.68367857221395    5.34264711544248
C         1.01105435785627    7.03859333661551    7.01263566689557
H         0.18260720177679    7.38149954363980    6.41286055250487
C         0.90837193986251    6.97130018630867    8.39607109710595
H        -0.00121662823171    7.25581786493439    8.89923284385644
C         1.99385610642152    6.53263481322894    9.13203397394456
H         1.95093424084542    6.46193516644232   10.21049466675224
C         4.11084314199150    6.16107920431707   13.87817525718263
C         4.12711732874872    6.14919693350454   15.25154102013664
H         4.06981037654259    5.21847494345804   15.79364766466434
C         4.23305808703143    7.36977901286836   15.91088766796041
H         4.25944838093204    7.39109137307876   16.99039610045315
C         4.31347598194532    8.55651617406565   15.19773650465032
H         4.40112559106101    9.49202783666655   15.73063899663042
C         4.29349304244623    8.55554295677758   13.81060830701203
H         4.36760641898966    9.46803728584696   13.23979202027741
C         4.18495235163421    7.34028437655594   13.15565278592764
C         4.21800342614725    7.11176740622597   11.68980227305029
C         7.63971507188918    3.55211809507603   12.25170224767712
C         8.40532774911300    3.11056915541815   13.30309842603921
H         8.85715607635642    3.81218475347204   13.98646375368743
C         8.56357011304224    1.73724122193767   13.46020931576803
H         9.15104695629248    1.35995775506285   14.28424625133618
C         7.96905908995610    0.84905615708376   12.57641159982565
H         8.10071919464180   -0.21325442708336   12.72127973007121
C         7.19997845697651    1.30755573445571   11.51679306109862
H         6.72007402358892    0.63073641687279   10.82716649692885
C         7.04577178554587    2.67473060296085   11.35980563811452
C         6.21253632712172    3.36690640333219   10.34561598829554
N         5.41539571662878    5.38495497475664    7.68076154582699
N         3.14460599833970    6.17611484100050    8.56089851719469
N         4.03354696626085    5.82002654393507   11.36718947793242
N         6.31583805025745    4.70483225888012   10.42256743925179
O         4.36267679128203    7.98399849792336   10.83825160248344
O         4.96745910003979    3.83747609275755   12.73340118247251
O         2.59066947403083    4.33250624979056   12.76742316114007
O         5.52067105755371    2.81236668045260    9.49668160393938
O         6.53700474691369    6.01764234379640   12.63579078185871
O         8.44544406434390    5.79453563211792   11.15131546822394
S         3.93774388301576    4.83750263402116   12.69255295481319
S         7.24909686374381    5.20205907465089   11.69255355759864
Pt        4.72653553725827    5.52185179785687    9.50548709275428

