73
CSD_code = TUTBAL | q = 1 | S = 0 | Stoichiometry = C39H30N2PRu(1+) | MND = 8
Ru        1.83020259336994    3.95914102373344   14.43505878902760
P         2.17154276379818    2.08229333729642   13.15551116134547
N         0.28741982019796    4.49143577489680   13.23946417647548
N         0.34753228725719    2.97460090816948   15.35968987843787
C         2.17100835655301    6.10656928751504   15.13717457424537
C         1.22610428795923    7.15012258804323   15.09032423179556
C         0.36768979503073    7.31236949503582   16.14825468282523
C         0.42255594017449    6.47062687110041   17.27324675805120
C         1.33572292903816    5.45035576249588   17.36066095357238
C         2.22744268084283    5.24418280439057   16.29049460146377
C         3.28567054929981    4.29095062022428   16.07597811513136
C         3.92275566474761    4.63620942999899   14.85067301426027
C         3.20723083273748    5.69033451457012   14.22425611332655
C         0.29483029378120    5.23922248098689   12.14678805693082
C        -0.87354894504568    5.67522207480642   11.52299843402947
C        -2.10269370125486    5.31800230818300   12.03058914042292
C        -2.14706820241545    4.51771608736352   13.18396912592054
C        -0.91543538581851    4.13949038357146   13.75126781516680
C        -0.88290177486993    3.32088389950921   14.91319016558597
C        -3.34447005587312    4.07163274953294   13.81404486019986
C        -3.31302479634432    3.29873471257033   14.92941458330637
C        -2.08044234335306    2.89148169164347   15.51644832889080
C        -1.96756512567095    2.08016934927348   16.65814019753626
C        -0.70958357021327    1.73774246939231   17.10356712942024
C         0.42166340192049    2.19284710725424   16.42650580451486
C         2.60698317902390    0.54462699970000   14.02384988006311
C         3.48581611159568    0.65644195490408   15.09754433511159
C         3.90387066325894   -0.47156059564389   15.77855273699325
C         3.44589425909003   -1.72042718895230   15.38887418580662
C         2.57788152887948   -1.83798462032231   14.31516175011469
C         2.15806221847432   -0.71232779869719   13.62810133325259
C         0.62763293075506    1.68272203708365   12.27319810539482
C        -0.41759163190830    1.06761675300173   12.96142598233598
C        -1.65700226493204    0.93089580528902   12.36427894409627
C        -1.86826889808851    1.41584104215048   11.08324826235601
C        -0.83274106180910    2.02494937592297   10.39351293078968
C         0.40997092775727    2.16430726773167   10.98543363354976
C         3.41361112074038    2.15363848839896   11.82798808923022
C         3.89382929665958    0.99933261730904   11.21632739122160
C         4.81762167371301    1.10097258760090   10.19201201207185
C         5.26612394399294    2.34436300768603    9.77422355120514
C         4.79001002814598    3.49499093294449   10.38194417228572
C         3.86676073801660    3.39932102267613   11.40697288579540
H         1.41167062055646    1.89573155188778   16.74656901008574
H         1.26151749214629    5.49675475657434   11.73557207858726
H         3.55074621360455    0.02906739343617   11.54419140842316
H         3.48668262519366    4.28537628121701   11.90052231504680
H        -2.83759832880562    1.31146352119575   10.62078715135350
H        -0.24863288726047    0.68106293426949   13.95876278839243
H         5.98970880274273    2.41584222811561    8.97688441418478
H        -0.79813885132213    6.28912187387267   10.63997396384583
H         4.85612814340147    4.21658283488575   14.49107290311047
H         1.48383643405758   -0.81004927381504   12.78860866947248
H         5.19158397491424    0.20587574220262    9.71869234753999
H        -0.26135360012331    6.64786790574223   18.08926686239793
H         3.71032485006621    3.66079925165071   16.84601124409224
H        -2.85429945020581    1.73184914155532   17.16388494976649
H         1.20175350302988    7.82273982655137   14.24385066118932
H         5.14171933915307    4.46306669653023   10.05800402747419
H         3.56071043514339    6.27682518350161   13.38653216714830
H        -4.28623682323762    4.36953407576294   13.37925482560710
H        -0.58293724557182    1.11142498705570   17.97194681661398
H         3.83892064600383    1.64095374502143   15.37974671415693
H         1.22003877537404    2.63913447679232   10.44903476810279
H         1.39509643286251    4.82881011870950   18.24350413906001
H        -3.01832891239012    5.63932070148031   11.55979397411231
H         3.76875379465386   -2.60301951082397   15.91919599078740
H        -2.46047932753756    0.44707565925280   12.89936345384926
H        -0.35706453920898    8.11201513325303   16.13149966559001
H        -4.22921191668487    2.97187989157567   15.39705803467558
H        -0.99403818809681    2.39329206933912    9.39173050740919
H         2.22870654113985   -2.81220701542763   14.00779388372271
H         4.58751838718905   -0.38144960170804   16.60932939064771

