51
CSD_code = TUTBAM | q = 0 | S = 0 | Stoichiometry = C20H24Br2N4Zn | MND = 4
Zn        4.71355900796714   13.10735119487123    0.56888658779665
Br        4.65878790523983   15.26402786872808   -0.43818499308231
Br        3.20041696198372   11.59362649327162    1.52490897966484
C         5.57407850838618   12.42842951336395   -2.28416729314438
H         5.25307269503807   13.40262893807539   -2.60403061364776
C         6.07605491758070   11.60820544661358   -4.57513934929420
H         6.98510460184585   11.11579370809721   -4.93309693227583
H         6.12674737273678   12.66800463116261   -4.83799316899110
C         7.06763676977605    8.26273385252613   -1.67667932485154
H         7.45565111624303    7.27837431276027   -1.89037126355458
N         5.58025236335304   12.03293659995804   -1.03606519539182
C         9.35629413345334   15.19852650428270    2.58981931631013
H        10.27930047760746   14.67612821837015    2.85763464905494
H         9.48783979973282   15.65854374511367    1.60693252205107
N         6.39496737741796   13.30241399493884    1.82910351715416
C         6.85668602360617    9.14447930752720   -2.71642764483258
H         7.07280935480997    8.87142827365452   -3.73779757109316
C         6.86846223859086   12.57479160413419    2.89811669312483
C         8.07614622749845   13.16069138016021    3.33305649232794
N         8.29382519685984   14.23267898900651    2.49815469048722
C         6.35091192143759   10.39385963408404   -2.38742514005550
C         4.84410834719036   10.96785087513467   -5.22196543345338
H         4.78097543885562    9.92179094227293   -4.91487955051792
H         3.94795859983873   11.47615433455819   -4.86050005181681
N         6.03195652423553   11.50021515378555   -3.14109989546146
C         8.79419293451789   12.64493133541844    4.40217780696084
H         9.71560434615670   13.09677724330234    4.73608816585105
C         6.35265353513920   11.45556882595249    3.54362923703152
H         5.41689657593781   11.01337815061909    3.24248513480757
C         6.06586941223184   10.74667297367440   -1.05192617102368
C         6.28892919447147    9.84800626379833   -0.01568698590677
H         6.07009786864710   10.11127322040230    1.00581886507095
C         7.26234653142327   14.26499396191597    1.63927672652361
H         7.17150203419582   15.01467171874137    0.87549731922987
C         7.07446648470324   10.94922240287367    4.60307823024874
H         6.70100358786267   10.08314604750300    5.12722831032685
C        10.16439838769519   17.30280793396463    3.71231029421512
H        11.09959459894011   16.82723148130309    3.99977688946591
H         9.92537726048183   18.06350119535688    4.45016030461606
H        10.30748895303562   17.79089420403735    2.75107536373426
C         8.27347994254437   11.52920637721105    5.02400912468569
H         8.80004563806327   11.09745357721484    5.86158927319667
C         9.04164324426473   16.27796731565522    3.63000761168813
H         8.89584341287334   15.80628807332187    4.60409376525284
H         8.10843311961434   16.77353778471246    3.35478577172538
C         6.78874772870224    8.60871878405916   -0.35205296391140
H         6.96750299676497    7.88252277946634    0.42581387379768
C         4.91273226111590   11.05939282412382   -6.73997019861964
H         4.95874935841446   12.09787869782881   -7.05931619230072
H         4.03257192960491   10.60296534237078   -7.18398200036347
H         5.79362478115509   10.54432596872214   -7.11685758284074

