81
CSD_code = TUTCAM | q = 0 | S = 0 | Stoichiometry = C30H38CdN4O6S2 | MND = 6
Cd        5.33576100529669    0.04018996440449    3.74377566524914
S         6.46582441580702    1.75879686777013    5.61496125037011
S         4.44131462133037   -1.69416628320331    1.76163597676320
N         6.15535228533045   -1.23324749463146    5.38605547080879
N         5.57045724162553    0.75839564589923    6.44235587251090
N         4.62317351374664    1.30373699776269    2.04619341388236
N         3.30442526258564   -0.61215851679119    1.91544314642894
O         5.79894964272660   -1.20677926302675    2.05235317885848
O         7.03404690871138    1.19755455450165    4.37899556719981
O         5.69044858482339    2.96172601714038    5.36283429339653
O         4.08779369579784   -2.84503451932229    2.57588310410440
C         6.53855404323233   -2.51174769362171    5.45648753989762
C         6.65210948393190   -3.17324872078977    6.66974182683592
H         6.95435623942309   -4.20830842177112    6.69414987517605
C         6.35788141555631   -2.49117250109177    7.84478859457039
H         6.42738875851020   -2.99293895768456    8.79943776578633
C         6.00394677734462   -1.16643344727548    7.77756040838054
H         5.79209899744569   -0.57962565545806    8.65595159373070
C         5.92036679390761   -0.54323134424911    6.51968618798374
C         6.85137305844846   -3.20733387193394    4.17237158975147
H         5.92197456816893   -3.48504477384639    3.67376418250177
H         7.44165700806078   -4.10326946066105    4.34963443943313
H         7.38319352304316   -2.53079592232856    3.50423165183271
C         7.80198404448185    2.18672198097428    6.75239337605844
C         7.44135880847359    2.90251387061533    7.89565791534236
C         8.42452333311789    3.23549019003842    8.81657609632710
H         8.15135243114308    3.79698358684128    9.69850279886321
C         9.74737214781161    2.85775398422056    8.63514809058762
C        10.06819981100944    2.11152242851710    7.51337363194725
H        11.08962371036949    1.78906931675499    7.36903915461107
C         9.11324114667005    1.75746172864352    6.56457470308502
C         9.54351928065185    0.92266762190545    5.39974020388292
H        10.59974783643303    0.67470651288996    5.48467047223990
H         9.37360631293299    1.45088449323184    4.46441764135952
H         8.96382409195312    0.00214138599170    5.35333163720239
C        10.78711350083121    3.22709160287754    9.64856193506603
H        10.73114316484725    4.28846223813428    9.88229235014289
H        11.78532238483348    2.99896032243918    9.28472299866305
H        10.62181449623888    2.67391907995552   10.57265921255119
C         6.02431386356324    3.29592173884939    8.15665946338753
H         5.71341814382179    4.06543387328557    7.45357528960506
H         5.91107423062838    3.66848665167386    9.17195056210887
H         5.37561986483166    2.43738968373205    7.99633837970066
C         4.88323641330453    2.55781284702791    1.66373148187609
C         4.03811221988173    3.25020106269948    0.81017784807641
H         4.26951261370563    4.26489283456796    0.52706547675713
C         2.88802372835629    2.62627125130665    0.34034853249642
H         2.20951997893869    3.15370289517109   -0.31493770171096
C         2.64048005942632    1.32445673026194    0.69866755956839
H         1.78093592643328    0.78070736981384    0.34326375937320
C         3.54172835136912    0.66667424087759    1.55496525509271
C         6.13156336336635    3.19056807384936    2.18531928647956
H         6.41020485254835    4.05293519728474    1.58427374052753
H         6.94044391567822    2.46078810821885    2.19619240995391
H         5.97438181333454    3.51005673610354    3.21622559243524
C         4.33784005756318   -2.19147253754011    0.02837325478971
C         3.17096920649252   -2.85169277877757   -0.36159249453305
C         3.02966773451490   -3.23774463964147   -1.68695170182910
H         2.13162744443532   -3.75592413393987   -1.99138104469679
C         4.01005730703916   -2.96665456206209   -2.63082867680449
C         5.13710217723492   -2.27172701159136   -2.22446825719884
H         5.89885405719513   -2.03056398122192   -2.95225031524233
C         5.31860895119071   -1.86672374775002   -0.90517098191898
C         2.06867763822275   -3.12807246422905    0.60763006397353
H         1.85046400021460   -2.22481327411889    1.17346525047479
H         2.38063061356657   -3.88461175637252    1.32412337609956
H         1.17750255783573   -3.47033996919114    0.08700299436978
C         3.84067371015864   -3.41432148244367   -4.05038209424819
H         4.59469302777841   -2.96834064599621   -4.69337874403531
H         2.85457673389505   -3.14275531766655   -4.42197972405900
H         3.93232889732152   -4.49835894792376   -4.11227052600378
C         6.55069229998113   -1.08991614324764   -0.56259713260773
H         7.14718503087925   -0.91763781295902   -1.45637847847467
H         7.15044665403172   -1.62359286491321    0.17099082962453
H         6.28757854643842   -0.13091890925218   -0.11919109566387
O         3.35519561189775   -1.29612231167868    4.67253202314009
H         3.53375105737497   -2.05929250673155    4.08966966319909
H         2.64038517851602   -0.82515943528910    4.22522772756518
O         3.48106962447235    1.54448708617044    4.68709030673507
H         3.36097932900758    1.10429030437269    5.53832569557171
H         4.10277886785459    2.27116700446785    4.88481833268968

