45
CSD_code = TUTDIV | q = 0 | S = 0 | Stoichiometry = C21H14BrN4O4Re | MND = 6
Re        2.18853042555995    4.83748821636840    3.28980191954361
Br        1.05852711565405    6.13153583117045    5.17235966661178
N         1.07362582969297    6.22379873622853    1.94742644886805
N         3.64982689776634    6.48737649616729    3.31389809453302
C         3.07866776168774    4.05292979652637    1.75457297939102
O        -0.12063282210609    2.77775034913530    3.30223530290066
O         3.78964337317753    3.17120946240814    5.34613825276682
C        -0.25315063374950    6.31704887258494    2.01720269064101
H        -0.73720266231083    5.78072331159593    2.82342412072426
C         1.70537182197780    6.90189087933357    0.98256791107866
C        -0.35901106862585    7.72748576847072    0.09886464395985
H        -0.91422977231056    8.30110968483457   -0.62720710718287
C         1.01960706164058    7.65184038952355    0.03235260340601
H         1.57829075797137    8.15896538244715   -0.73655523790565
C        -1.00624378353060    7.05870176125468    1.12632317313715
H        -2.07752351029803    7.09963192230132    1.23641289134178
C         4.26960938472364    6.84060142452467    4.43949973518869
H         4.03648595062376    6.26324080376972    5.32489462666020
C         5.16393005767333    7.89243790836136    4.51440221931333
H         5.63411634053535    8.12862184956900    5.45467308255589
C         5.42833177789030    8.62848986666241    3.37063039961701
H         6.11341942119403    9.46181197735616    3.38789265565627
C         4.78464319232268    8.27177802927424    2.19935479004830
H         4.93725561125872    8.83344025832697    1.28943140192875
C         3.90335215746694    7.19183320369979    2.20411349500385
C         3.18159245237654    6.86649811045057    0.94616294715606
N         3.71477575121042    6.68384087679805   -0.20149525257861
N         5.02637149974101    6.61488874633171   -0.38487224828132
C         4.70162534008729    6.14970946853107   -2.75723552037314
C         5.60395428955635    6.24305879905898   -1.58933054120038
C         4.90651399845696    5.10783897548125   -3.65815096889933
H         5.69665250189551    4.39842141151309   -3.46488752950631
C         2.90751814674282    6.96749740080406   -4.12707743425975
H         2.13783854872776    7.70010201779100   -4.32113426673463
C         3.70393401648046    7.08767785826836   -3.00341678870572
H         3.57036095053351    7.92193723757803   -2.33244448385839
C         3.09676251234169    5.91417736651436   -5.00696660253872
H         2.46820207532522    5.82196844912467   -5.88024068373398
C         4.09905036929978    4.98666695737620   -4.77313823272290
H         4.25387530716288    4.17143791581482   -5.46366548966934
C         3.19925684175356    3.75756041296291    4.55861574417446
C         0.75852375682897    3.51113909913076    3.28271871226288
O         6.79344026579237    6.02629412730249   -1.61710449295071
O         3.61650455207084    3.58579166179390    0.85387824608264
H         5.67460613772952    6.64765092547865    0.40727412654944

