37
CSD_code = TUTFAP | q = 0 | S = 0 | Stoichiometry = C17H11BrN3O4Re | MND = 6
Re        1.28566514544952   13.66963838211465    7.75909242676312
Br       -0.91449832943983   14.23782254228921    6.60113882480123
C         0.50670564070687   11.97818856445649    8.35138424852111
O        -0.03732761043235   11.03434676676413    8.69779039348257
C         1.95731194036636   12.88181559017120    6.10158072817124
O         2.33254020344681   12.53409683756123    5.07895800210029
C         2.95726611042517   13.37581455621408    8.69875738910784
O         3.95792087952469   13.23053165497171    9.24225280617738
N         0.48301810511279   14.91009765246468    9.35302111233544
C        -0.26527604449470   14.51134294792577   10.37639590293423
C        -0.87153734486439   15.39064931052223   11.25440309519243
C        -0.69587360916853   16.75688111418158   11.06874495911447
C         0.07844483834894   17.18447727487989   10.01083876014456
C         0.65340495415061   16.23625976968994    9.16117261331291
C         1.44821679532090   16.61050236172497    8.02382688187592
N         1.89468102807674   15.66937750256338    7.25598110667634
N         2.47170894057940   15.90625632789361    6.10942652231275
C         3.68510701053274   15.73083201181672    5.78131950869114
C         4.11466210202111   15.85998020933742    4.40811640915665
C         3.19501221201504   16.13042332397228    3.38784215813208
C         3.62333145096567   16.23812505133791    2.08450646047986
C         4.97580918854171   16.07686735621109    1.76988912153170
C         5.89223671022207   15.80112418844540    2.78538733656966
C         5.46681303323162   15.69529608105389    4.09191175950596
C         5.42306427281942   16.19938628569289    0.37468948603841
O         4.71482490751098   16.47196094123344   -0.55893166306768
H        -0.38631527491736   13.44246979699509   10.49677724523939
H        -1.47153210133220   15.01056568898308   12.06476115528153
H        -1.15907178391042   17.46823247850217   11.73468056800803
H         0.23884560198157   18.23343917463722    9.81735321744549
H         1.65148416336868   17.65532956062029    7.81674794304196
H         4.44405995559791   15.46758459769479    6.52443302211323
H         2.15243194610398   16.24492952692178    3.64071306348576
H         2.93039921690622   16.44493830458712    1.28282412352481
H         6.93676239906626   15.67129309413506    2.54164734997086
H         6.17531816032188   15.48000749766018    4.87860396097165
H         6.50828518583852   16.01961567376998    0.23816200085217

