44
CSD_code = TUTFEV | q = 1 | S = 0 | Stoichiometry = C17H20ClN4PdSe(1+) | MND = 4
Se        0.86207077471332    1.72095257164065    0.34455200770633
Pd        0.30299905661763    4.07831657447089    0.08783180782650
C         4.11606532952178    3.58542815895333    4.06547110750339
H         3.95977758020961    4.26450343804612    4.90384463505249
H         5.18865761433193    3.50519645411084    3.90608663011552
H         3.72112368165250    2.60747994657158    4.33210761650389
C        -0.90092875764257    5.64272282809418   -2.73889602679836
H        -1.51229692657184    6.54267379822495   -2.66095643970778
H        -0.65349748792387    5.46638748205754   -3.78631504389781
H         0.01570129959195    5.79079358003895   -2.15546105704577
Cl       -0.42957816944412    6.13527987871918    0.58557576425195
C        -0.86754159934781    0.91436352519595   -0.17371276965089
H        -0.76628808151416    0.69559761072895   -1.24098119929938
H        -0.97913991674739   -0.03282305137919    0.35515921226648
N        -1.61044059262093    4.51181897473317   -2.19883848316826
N         2.23641812386306    3.75665539631401    2.40363310298252
C        -2.06747658710948    1.83738337990841    0.07296420705393
H        -1.97518411105640    2.33784621662788    1.05109726615121
H        -2.98917869884921    1.24969839185901    0.06919933251451
C         1.27271962281904    2.92764126187984    3.00908372624728
C         3.00861076464179    5.09870228976153    0.89505720205654
C         3.99338443137659    4.96560355512908    1.88321099343863
H         4.95750365705508    5.42931648142438    1.89820046942997
C         3.47666301888820    4.10963004857119    2.83516971830267
C        -3.10255854580408    2.92384132062007   -1.94942986927046
H        -3.92933863702734    2.24797886789079   -2.02102241280142
C        -0.56838125685323    1.29171881574421    4.29609787932642
H        -1.27318672642437    0.64040685166672    4.78799562477115
C        -2.75543311482395    3.97907959803792   -2.72589788319705
H        -3.22782644903434    4.38170602965134   -3.59789092840007
C        -0.33895385080422    1.14578530664921    2.93862266476387
H        -0.86310722177110    0.36607291328157    2.40846000126948
C         0.10138241382700    2.26797934752559    5.01155498710243
H        -0.08583376402449    2.39963754888513    6.06486118889130
C        -1.24818990679551    3.82125936641346   -1.11154194851732
N         1.96391368771724    4.36240103075532    1.23682551953691
C         0.55961552126821    1.96817985591587    2.27043697720848
N        -2.16348077260726    2.84394723721030   -0.95604037679564
C         1.01757744513429    3.07891938090674    4.36842170527682
H         1.53282170887999    3.85373689611708    4.91282857060408
C         2.98965217789338    5.86645086996954   -0.37830153404180
H         2.63172922315496    6.88079058495003   -0.19549728406323
H         2.30326984379117    5.37516707903945   -1.09106090583733
H         3.98528419784974    5.92267230708649   -0.81000575566154

