28
CSD_code = TUTJOH | q = -1 | S = 0 | Stoichiometry = C10H10CrNO4S2(1-) | MND = 6
Cr        0.59989915778807    6.40284615547825    2.86022909344446
S         1.16569321573998    5.48742447935664    5.20849910372438
S        -0.60433442315769    7.74395418347191    4.71039749505357
C        -0.80884757079439    5.23579768900259    2.58296087025116
C         0.03273427864383    7.24545989661045    1.35045262574627
C         1.56487506823905    5.30056228748531    1.78086355501731
C         2.06119210879273    7.53427569451233    2.78933272261506
C         0.15352428167983    6.70512217108941    5.81643285446414
C        -0.78445974723825    7.94148014349845    7.70945522441793
C         0.20414518146852    8.91573048736894    8.35318875693895
C         1.03617464209337    8.19025322193284    9.40805235476960
C         1.72285952896711    6.97932347236269    8.78081242755027
C         0.68090155946358    6.07330077944185    8.12177023325094
N        -0.07900384680753    6.81619389840143    7.14606681454357
O        -1.60435406485750    4.51471208270737    2.14085808666483
O        -0.24585936496424    7.69547255673541    0.30934942524579
O         2.12881185383353    4.66764933107181    0.97747416955772
O         2.97298765832824    8.18073869962072    2.47291516557973
H        -1.34657275358898    8.43013436123533    6.91286422309867
H        -1.48329760666441    7.56429180264931    8.46672392473458
H         0.85982575966491    9.30937331885880    7.57457096912290
H        -0.33934974389778    9.75110574031747    8.79889365623695
H         0.38208126644218    7.85637135748051   10.21907180975569
H         1.77989832689301    8.86769826766608    9.83450248015809
H         2.27564532212066    6.41632904408135    9.53539916160100
H         2.42718588075394    7.31127345509500    8.01605483438848
H        -0.01436472705508    5.69138553567500    8.87993792126945
H         1.16110875811821    5.23343988679656    7.61837004079890

