47
CSD_code = TUTKOK | q = 0 | S = 0 | Stoichiometry = C18H22Cl2N4Ni | MND = 6
Ni        1.75327897933440    3.12775540137437    9.05996162656948
Cl        2.00115568263498    4.72499550640373   10.42552885760267
Cl        1.08017081587788    4.47828150716597    7.58041118375915
N         3.90185713428230    2.96718784456997    8.26446311060935
N         1.67131094805519    1.75668428183631    7.60901663093278
N        -0.25699658236114    2.61872782246798    9.98013861950795
N         2.25576836261178    1.85828615931041   10.53005745213785
C         4.97089527009339    3.69517462137199    8.87000666624177
H         4.52964330793032    4.58931109155805    9.32360065632829
H         5.76253244666610    3.99756741816576    8.17111840891754
C         5.58544024495204    2.83887367191554    9.98764984602604
H         6.38005705191803    3.42528484251854   10.45309578455561
H         6.04009780772265    1.94574864527793    9.54914312925135
C         4.58155438625265    2.43425042738557   11.06701064001223
H         4.00936415555108    3.31745682449843   11.35737583927706
H         5.13494926766638    2.08448716514630   11.94062792202784
C         3.59114056041998    1.32811745330210   10.63174853337548
H         3.87232529480381    0.95950612883061    9.64249664243160
H         3.64163865230305    0.49247022022207   11.33804583657051
C         2.65948783486205    1.80142201614998    6.70294643632098
C         2.60723482115342    1.03690941427952    5.54001918062866
H         3.42096253417469    1.06526310256459    4.83338799452724
C         1.50450067004735    0.23582655581238    5.30305542649180
H         1.44044052523156   -0.35425961259840    4.40083399446702
C         0.48700292405887    0.20995974510748    6.24257718749467
H        -0.39618015949033   -0.39101769245029    6.09505558401827
C         0.62318908113155    0.98232360942167    7.38549103563220
H        -0.14506540962101    0.98990095832680    8.14734627466460
C         3.80370692396504    2.67801081179557    7.02939695583086
C         4.69984748667434    3.11860829585038    5.90670105798599
H         5.22501277107818    4.03218471822544    6.16974695854442
H         4.10740689933241    3.31180614468901    5.01615769072154
H         5.43577924225129    2.34567277882236    5.68239111418776
C         0.07275947168452    2.31897603624026   11.24642326910332
C        -0.70160566201773    2.72749190054772   12.32754991497847
H        -0.39393145790809    2.51674616287950   13.33950391681611
C        -1.84802518577679    3.46660101220258   12.08608299560575
H        -2.45506387904999    3.81395970218067   12.90899033227865
C        -2.19231690227122    3.76091448929051   10.77688542330340
H        -3.07661530910191    4.33379022843209   10.54736417139352
C        -1.36571845821787    3.31097577908870    9.75891721400571
H        -1.58611398191983    3.52576154926802    8.72097173302513
C         1.35985220017655    1.61799042701035   11.40755345619793
C         1.52356878032311    0.71308085924154   12.59625514110270
H         1.94118235897844   -0.24569065064370   12.29301366081238
H         0.56599841997177    0.52854703938248   13.07286765142501
H         2.19961967356415    1.16647758556091   13.32041684230385

