43
CSD_code = TUTKEA | q = 1 | S = 0 | Stoichiometry = C16H20ClN4NiO(1+) | MND = 6
Ni        3.70881506183519    2.46772538066776    3.21703678532083
Cl        5.64908730545246    1.72863613127178    3.70515585763840
O         4.01031326796476    0.99530088164909    1.23982909079278
H         4.86158967275488    0.65036216579906    1.54816563658143
H         4.17073243156159    1.37954149515813    0.37418652171902
N         1.94946665260991    2.90255450618001    2.53963393454534
N         4.36357994863471    3.85753077747045    2.13461190598881
N         3.62911876437564    3.69125856615733    5.10649536447323
N         3.05279932843561    1.17818714377569    4.31474189286962
C         0.67134446702492    2.29190949377646    2.77315814807222
H        -0.09913336508228    2.80261390753782    2.18015337619144
H         0.42254598159465    2.41492843542562    3.83305031624296
C         0.68528644646013    0.79456453283223    2.42138041691702
H        -0.32611223917023    0.51860830482396    2.12200195062319
H         1.34590204136920    0.63821506846156    1.56680280121582
C         1.11036126547400   -0.12409431605060    3.56489867899185
H         0.56504383990712    0.13834119094352    4.47481291706318
H         0.84394198201914   -1.14790945252711    3.30025658235978
C         2.61996417217279   -0.11318728618779    3.84694598676489
H         2.84651808982909   -0.87744216767786    4.59957400503615
H         3.15309882414470   -0.34635108606272    2.92365768824567
C         3.33917518248450    4.49811395621797    1.53797056241921
C         3.53123082816844    5.63894243515451    0.76249669988197
H         2.68535238558482    6.12320068237161    0.30077751564155
C         4.81540708574171    6.13274576894987    0.60249573116102
H         4.99490553996087    7.01371525130848    0.00642582560207
C         5.86102496025508    5.46842487630499    1.22453840751829
H         6.87726728334018    5.81385814626236    1.12666220649972
C         5.59108734856903    4.33561972200288    1.98123619758395
H         6.38793917271141    3.78975853492562    2.47088337074472
C         2.03664430213744    3.91226398204487    1.76954943726252
H         1.16517972609884    4.35446201210152    1.28437255464535
C         3.38579318896809    2.76532470731487    6.05118926232103
C         3.52830420038355    3.02762223091045    7.41178785834377
H         3.32281219559600    2.25697002488690    8.13786436234440
C         3.95562857421838    4.28543748214813    7.80482558740509
H         4.08527699783563    4.51861877628866    8.85019387256857
C         4.21590819625491    5.23400879329299    6.82869990806203
H         4.55246580431460    6.22391121355835    7.09069852101306
C         4.03222361345079    4.88846266763292    5.49534461454287
H         4.21702222735887    5.61086510272168    4.71032626601747
C         2.99052019146612    1.45783139306033    5.55604693152102
H         2.66976705573266    0.71434856711587    6.28556444924671

