39
CSD_code = TUTLUP | q = 0 | S = 0 | Stoichiometry = C12H18Cl2N4NiO2 | MND = 6
Ni       -4.87865017579550    0.48686191693509    2.03614302437740
N        -5.13411019935790    2.67317201046191    1.96476666555755
Cl       -3.61350785043620   -0.48734068417901    0.50516469762708
N        -5.14209763887141   -1.44926955835015    3.15317837891581
O        -4.45074239992550   -2.59711635892626    2.82993369947569
H        -3.96219256971606   -2.34201208938864    2.01765536337655
C        -4.52286238947378    3.50411513008969    1.13080952702423
H        -3.72883621312369    3.07722277461982    0.53145435952502
Cl       -6.61367355528143    0.21949701587046    0.95460438085353
N        -3.38515556659347    0.77321017704971    3.09759715828816
C        -4.86934881992009    4.83968561424122    1.01833063064149
H        -4.35085404926957    5.48115039761073    0.32411427389814
O        -2.09829407651784    0.63730380386589    2.65939494707736
H        -2.21255335393252    0.20382699999498    1.75904339428996
N        -5.98690399120341    0.97592983157850    3.89471347630098
C        -5.89201590014350    5.32567189025249    1.81805404830665
H        -6.19014847364483    6.36221196553543    1.76422752303768
C        -6.52962370444330    4.45700972423810    2.68668497384675
H        -7.33543571062135    4.79617236141376    3.32005877867317
C        -6.12392992816470    3.12882230872034    2.72605879392520
C        -6.83842284303953    2.11641645009094    3.58448058295230
H        -7.23843715132914    2.59662845187885    4.49182733619238
H        -7.67803634127308    1.75147269991983    2.98261370780664
C        -6.75061467982934   -0.19314384449395    4.32217158270589
H        -7.66026246972982   -0.24675044015796    3.71528297954459
H        -7.04673781024208   -0.12306809361678    5.38073592257680
C        -6.00526247735372   -1.48324147379009    4.07857233276479
C        -6.38388778266108   -2.68176056873798    4.88454708250457
H        -5.98216509413957   -3.57625273606597    4.41578169929877
H        -7.46632730276105   -2.75996673351218    4.96116275773400
H        -5.97356411314233   -2.60056197635429    5.89108772764310
C        -4.93073659198245    1.32378514751996    4.84836015808570
H        -5.00793615866113    0.69711428590302    5.74717492650406
H        -5.04242853883383    2.36735496215418    5.17291743326347
C        -3.54383406577806    1.16061932483611    4.29936960590307
C        -2.38337015613621    1.45886812968919    5.19322652319029
H        -1.71178994658184    0.60093029933282    5.20977163292297
H        -2.70665464419850    1.69485642025949    6.20251809244493
H        -1.81509526589143    2.29527446351004    4.78680982094329

