57
CSD_code = TUTMAY | q = 0 | S = 0 | Stoichiometry = C25H22MoN4O5 | MND = 6
C        -0.39213147154206    6.43314384882732   12.47122737572946
H         0.06179424395045    6.02820043145663   13.38217177271489
H         0.28141441404730    7.17170840094815   12.02424733717398
H        -0.55721233214910    5.62554016650823   11.75711480819873
Mo       -3.15368984161559    6.14012109692668   14.75080237453097
N        -1.29158351155670    2.56643298210034   14.98855569647725
N        -1.64465060222228    1.37716011652750   14.43868068626253
O        -4.19136237171194    5.38706584451922   15.78198826165526
O        -2.20734344251595    7.34644787714528   15.35523343681754
N        -3.86369186542751    5.05068503206303   12.99124632446159
O        -1.79425357204982    4.84166188702671   14.65192332099390
N        -4.78086988429886    5.76021831370343   12.27190797012090
O        -4.27352855122299    7.32773287550503   13.81119454279928
O        -1.65507029802828    7.02096458355578   12.73709374638405
H        -1.52797715136017    7.70696930237683   13.41383919394563
C        -0.40802184251034    2.62205637159969   16.07750411167668
C         0.43259806508115    1.53791572947872   16.30837068735602
H         0.37703557887688    0.68845024575344   15.64701992063223
C         1.30542451169255    1.56602182812399   17.37930438105243
H         1.95792139001107    0.72490885143685   17.55928493005044
C         1.34434424989026    2.66841770984756   18.21774313218975
H         2.02888435209586    2.68957397537932   19.05222003978286
C         0.49733598264812    3.74068746145924   17.98873378171863
H         0.51614902720264    4.59555995937143   18.64725170462848
C        -0.38652025421026    3.72675101527961   16.92387525905461
H        -1.05981143992689    4.56317562301587   16.76417461383152
C        -2.52510892156185    1.60971204604475   13.49928171691652
C        -3.13964456146031    0.49280101716326   12.73812319743304
H        -2.77226009866671    0.47327184386162   11.71366528000642
H        -4.22092502479536    0.60732585225009   12.70535594062151
H        -2.88304988423985   -0.44438921311402   13.22329624410529
C        -2.78406843984931    3.01237630524358   13.40035690734082
C        -1.96136869172771    3.58244987014479   14.39262445310161
C        -3.69193889575095    3.79840235339916   12.64280888944346
C        -4.43551841562383    3.21056687179113   11.51072100383824
C        -3.73807567485446    2.68562250720939   10.42732728025753
H        -2.65794148836905    2.71461387326150   10.42387676196129
C        -4.42600414335767    2.15326004153588    9.35223998745970
H        -3.88022394348286    1.75420378496450    8.50996307156401
C        -5.81078888471487    2.13247268713656    9.35499814908674
H        -6.34604052653929    1.71246015818123    8.51644411367920
C        -6.50776812990549    2.65499330598413   10.43210155780634
H        -7.58752284338653    2.64190129768072   10.43469241829621
C        -5.82631033104322    3.20027572626665   11.50462252661655
H        -6.36387762210181    3.61103552673028   12.34530038459889
C        -4.97147046626657    6.93424875673057   12.78114322114776
C        -5.98040013891395    7.82915506598122   12.20697029847814
C        -6.20909849978085    9.06680804465144   12.80734168228291
H        -5.63130351723514    9.33599597894483   13.68122658577383
C        -7.16362171803313    9.91957543218248   12.28658307573039
H        -7.34221473370562   10.87748969224177   12.75199970076287
C        -7.89262149274811    9.54535654098371   11.16856845232656
H        -8.63858238172402   10.21326293564529   10.76351497303896
C        -7.66776398591691    8.31432310643081   10.56992054383650
H        -8.23948445886704    8.02730273688872    9.69975519478154
C        -6.71688959604637    7.45401328968961   11.08388391280043
H        -6.52609587248352    6.49164103395254   10.63618306465617

