56
CSD_code = TUTMIE | q = 0 | S = 0 | Stoichiometry = C16H24N6NiO9 | MND = 6
Ni       -7.29711984402394   -5.33724089697676   -3.67756610836333
O        -6.96191635541059   -6.26623492825824   -5.70050031504992
O        -7.83354923422695   -3.47738332086759   -1.36110506879622
H        -7.52791445503738   -4.35825165195227   -1.04455731880659
O        -4.69014841223949   -4.58011569701831   -3.01662067185167
H        -5.07886104361041   -5.03798404537232   -2.20946393426292
O        -6.59014234367833   -7.26290016298316   -2.91460793010336
O        -5.96383799127890   -7.91796087235229   -0.97847060275102
O        -6.22583705848474   -5.82878800070724   -1.38176916623352
O        -9.01784107473781   -6.06703010621456   -3.77904756596329
O        -8.96169981683701   -6.09480202208020   -1.65508842840970
O       -10.66496926655629   -6.87501628962104   -2.70139472574059
N        -7.96049223594796   -3.84241079785824   -5.44574572677363
N        -7.98448202291679   -3.60903573035345   -2.71648385258256
N        -5.73726461713821   -4.45736121488025   -3.88072239763898
N        -8.67669109678308   -7.10691396407676   -6.89141605057077
H        -9.60382606021621   -6.95120056026946   -7.25443141601968
N        -6.26494032427185   -7.03980388803330   -1.73136767965510
N        -9.57334732694297   -6.37202099111687   -2.66560463692754
C        -8.69592564990286   -4.72309160407421   -6.34690350659207
H        -9.69874036734331   -4.83712539295391   -5.92609944142429
C        -8.03233896225444   -6.11245033293761   -6.27482795544396
C        -8.71685242208321   -2.76267628077799   -4.83899818066674
H        -9.78621292221085   -2.92099092710788   -5.01112141685972
H        -8.46403653458360   -1.78989267836771   -5.28923866428343
C        -8.53466626433451   -2.65155658202577   -3.34465116917122
C        -6.63022741545497   -3.45161668050690   -5.89189779453128
H        -6.61216785390308   -2.39193501783026   -6.18910084260402
H        -6.34904441894127   -4.04915796531489   -6.76396823667706
C        -5.55037812163526   -3.67351442709322   -4.87134713415769
C        -8.81810321043495   -4.22966680923574   -7.80801111864726
H        -7.83628949912575   -4.19816711332589   -8.28256507142306
H        -9.42598652233735   -4.94908467067325   -8.36033193996646
C        -9.46597678121647   -2.87422114462791   -7.87833276907689
C        -8.73286925118602   -1.74716105989645   -8.22468005149115
H        -7.68833992483062   -1.84711687307355   -8.48535609875738
C        -9.32940178292755   -0.49811209966136   -8.25475379020143
H        -8.74654797378313    0.36864286819203   -8.52923421026126
C       -10.66951827671782   -0.36107578519136   -7.93785782066174
H       -11.13534186477864    0.61229299925423   -7.95991244129507
C       -11.41321955931022   -1.48083247203061   -7.60366414014837
H       -12.46217240558405   -1.38275056845478   -7.36765252065513
C       -10.81561625218004   -2.72762156887111   -7.57633825580884
H       -11.40494852335851   -3.59786238931924   -7.32358176262858
C        -8.25114756406936   -8.48232270949572   -6.74517570435167
H        -7.97262707980355   -8.90073767453857   -7.71332048546059
H        -9.05061797882125   -9.07866553263865   -6.30728511677441
H        -7.39106892641210   -8.49224405715035   -6.07757753997981
C        -4.23760633241432   -2.98820733174006   -5.06268390827311
H        -4.00765893819270   -2.39170282973312   -4.17977444000891
H        -4.23906995882770   -2.35667210363139   -5.94527538479505
H        -3.44963534271263   -3.73610752900342   -5.14596646894687
C        -9.04560681963995   -1.42569144681411   -2.66577957481189
H        -9.59401797007676   -1.71532454710389   -1.77052414365048
H        -9.68084033137755   -0.84064682621863   -3.32394620828029
H        -8.20449941689668   -0.81597769503788   -2.33670109473080

