73
CSD_code = TUTPUU | q = 1 | S = 0 | Stoichiometry = C35H30N6PRu(1+) | MND = 8
Ru        4.17971293529314    9.45431642947067    2.42563955577693
P         2.50576369618447    8.10858657954400    3.23768192804183
C         0.81072168104134    8.74630135053040    3.37349205195768
C         2.87713406719192    7.42927467355014    4.88125265213782
C         2.25826295516455    6.62910829573105    2.19406148207601
C         1.95882024072260    7.40755718162004    5.92461158912942
H         0.96322779605469    7.80246811593534    5.78309800121429
C        -0.27998155563876    7.88458455302560    3.47097981666770
H        -0.12320558015567    6.81463761272911    3.44814851192024
C         1.57650180963407    6.80991480948253    0.98992504699280
H         1.10887157659821    7.76518544275724    0.78335510762926
C         2.32792626949278    6.88212673593437    7.15151028768289
H         1.61482650273058    6.86702289356027    7.96172244745847
C         0.61124893762265   10.12137933722576    3.40630660861994
H         1.47068984826201   10.77638590976511    3.33507631619293
C         2.83707573081042    5.39569617073004    2.47296361729051
H         3.35832482326018    5.24276112342806    3.40646642005423
C         4.16896039091574    6.94057734300442    5.07984911991346
H         4.88435308895002    6.98658935112310    4.26676282772148
C         2.73611962902463    4.36016658741376    1.55856390513499
H         3.18365579083279    3.40322450895260    1.78234530854839
C        -0.66656139348113   10.63596661355488    3.53396239721003
H        -0.82005352340598   11.70429322896241    3.56139947219836
C         1.47666038043613    5.77279814139836    0.08120901756279
H         0.93781084170440    5.91858558215170   -0.84375913548196
C         2.06444300094846    4.54717425659346    0.36140592088293
H         1.98729264860310    3.73505918955973   -0.34637879953058
C         3.60462257703916    6.38088078904588    7.34255381701655
H         3.88552240629519    5.97325247532133    8.30156590897313
C        -1.55484301197350    8.40410640394590    3.59741908518617
H        -2.40022703171192    7.73722268466650    3.67447811889992
C        -1.74936977626216    9.77694815502898    3.62835506508391
H        -2.74703134398833   10.17623968749207    3.72726187266667
C         4.52527400294396    6.41127681012462    6.30579727196398
H         5.52329722222252    6.02804174962273    6.45878011855006
C         6.15027197037784   10.36485698484188    2.99233181541535
H         7.13616323284131   10.03541910957521    2.69399199169309
C         5.47464955191699    9.98059935688285    4.17664076987244
H         5.88293918696501    9.37465084394001    4.97220456252474
C         4.21427066162533   11.59816058528313    3.12160213708181
H         3.52379572169073   12.41819979241874    2.97884123483787
C         5.37166179749283   11.34470650615838    2.33017566667219
H         5.68045862745363   11.91922010249158    1.46648058608758
C         4.28172632280113   10.75927276269581    4.26089650169848
H         3.62193086972462   10.79862969062421    5.12022391866333
N         3.33366436459399    9.54842061576007    0.58314697297332
N         4.90783578593073    7.82870328581379    1.54427685835358
N         4.96255870355300    6.36220009812273   -0.06770177268870
N         5.64148978311604    6.82003196297556    1.97208896684870
N         4.79300908974153    5.73761576917400   -1.27982304864582
H         3.80722829522731    5.56253236904933   -1.46382151527070
H         5.32078514062293    4.85171426725994   -1.23352050883013
C         7.02995168122625    4.25700810138238    2.23356908474778
H         7.06975847896416    4.93600763620503    3.06869836967627
C         6.34554885252450    4.63467816355290    1.07838849142676
C         4.49411836866873    7.58320651891179    0.29726227854698
C         5.67964985739387    5.91825707360869    1.00779505469151
N         6.25108464939635    3.84416313413186    0.00537116476797
C         3.65044923420183    8.56798807128224   -0.30940245173011
C         7.54402487040930    2.19713001132278    1.13898318195932
H         8.00878286233646    1.22505008534462    1.11753709075136
C         3.21177781995445    8.58279034613211   -1.63110666743964
H         3.51796666433967    7.79641350052633   -2.30149155517761
C         7.64001426813775    3.01542881527086    2.25610097730721
H         8.18387375688590    2.68907422300180    3.12937634830331
C         6.83486391245635    2.66017786709828    0.04038807480822
H         6.72729432217514    2.06399913964268   -0.85534734901319
C         2.41415247733746    9.62738974718340   -2.05561065893499
H         2.06100655709225    9.67207417555679   -3.07289543598979
C         2.55645351529804   10.54546427382887    0.15188325540588
H         2.29822438323403   11.30359073900497    0.87856098395959
C         2.07963841226761   10.62274348581972   -1.14143912279602
H         1.45817831658539   11.45352001500873   -1.43251898584244

