100
CSD_code = TUTSAC | q = 0 | S = 0 | Stoichiometry = C43H50N4O2Ru | MND = 6
Ru       14.90249869680024   -2.80287991544254    3.84447833738484
O        11.93127597493148   -2.38467940334621    3.36879064502173
O        16.63157892117289   -3.04566487034312    4.12176007902849
N        14.64572612333649   -5.51437998638834    5.30213558653525
N        15.32148233198887   -5.80896425634307    3.29590994527978
N        15.92175433805165    0.00212766688067    4.62286563907765
N        15.83813336819333   -0.18603951134897    2.49545706467491
C        14.85560057174177   -4.86605660203774    4.13871541425742
C        14.96974781897136   -6.84160457399065    5.18957406712380
H        14.86937432325813   -7.52471806368607    6.00873766709410
C        15.39824625113892   -7.02741000500912    3.92132178825885
H        15.74354761082257   -7.90608669501771    3.41479453708474
C        14.17392635032027   -4.92898454537868    6.50772590698593
C        12.80190844743200   -4.87741079784475    6.74765295936827
C        12.36511924675333   -4.32238001605690    7.93916456504333
H        11.30413546108294   -4.26813142437412    8.13809649395480
C        13.26101298458208   -3.82706440871925    8.87728662653091
C        14.61994342140855   -3.89345034457004    8.61017736003917
H        15.32372811325842   -3.50402279050670    9.33057453578339
C        15.09903410331565   -4.44321669022083    7.43069524739400
C        11.83900127594889   -5.38965808854683    5.72050299498171
H        11.93321686216859   -4.80274355839101    4.80615065614997
H        10.81631367910513   -5.31335267985174    6.07962432787354
H        12.04774287364075   -6.43075142893664    5.47348558507208
C        12.75466285928783   -3.21157937572838   10.14689244690360
H        13.53029434330291   -3.19537418437521   10.90850945050032
H        11.89663832532247   -3.76154357862190   10.52823049627257
H        12.43637501479971   -2.18624714113825    9.95716163193990
C        16.55982403680881   -4.49379926145138    7.11865302827431
H        16.90417915157510   -5.52351494460683    7.01563576695818
H        17.13866600429193   -4.00376126069303    7.89603830553139
H        16.74245183434326   -3.98299981564191    6.16861400020143
C        15.72589852398454   -5.62932058958480    1.94462098027433
C        17.08231296214461   -5.46053412107180    1.66560542692218
C        17.47154442734463   -5.36608734353348    0.33758583873039
H        18.52030019997869   -5.23819005596656    0.10703729409003
C        16.54998012944951   -5.44111113932117   -0.69541004289650
C        15.20577442777113   -5.59516657995997   -0.38462661469601
H        14.47856008994554   -5.64477221864848   -1.18268153079147
C        14.77430682333664   -5.69616510138452    0.92828979938700
C        18.06438198896199   -5.34863577667092    2.78473866023834
H        18.08673720647626   -6.25626962543882    3.38817531815233
H        17.74961077738388   -4.52214164506662    3.43777320192191
H        19.06507646985023   -5.14808361829546    2.41176501539948
C        16.99923467636838   -5.39839872529672   -2.12542973835991
H        17.94365045734942   -4.86783961965940   -2.22377738481951
H        16.25321358075602   -4.91707363180803   -2.75265118079605
H        17.14580632116706   -6.41356824715689   -2.49709136582334
C        13.32405052946508   -5.86146754314489    1.26503984912034
H        13.16395236064570   -6.75370073380787    1.87090546918640
H        12.72495675309093   -5.93958517022147    0.36176303151598
H        12.98175901820058   -4.99916277994202    1.83968167855427
C        15.50178343749004   -0.81704592959457    3.63854895625797
C        16.50784414149264    1.12838238108718    4.10354349493617
H        16.90316461394990    1.90365199419175    4.72848403294277
C        16.45382755439509    1.01020574264059    2.75828764639448
H        16.79442906663565    1.66006082066516    1.97762977819165
C        15.82902780265272   -0.22022503188997    6.02420156207809
C        14.66664478219284    0.14413595798662    6.70158822008591
C        14.63172288010507   -0.00993192249209    8.07831368126121
H        13.73653518265785    0.26851677602942    8.61617873670774
C        15.72295089726777   -0.50429817871574    8.77955971842996
C        16.86063464557740   -0.87008936402665    8.07658191197988
H        17.71342206439432   -1.26407524775497    8.61222489144369
C        16.93710886203716   -0.73402444760349    6.69836308219745
C        13.48930298326293    0.67627685818328    5.94351187229800
H        13.76812623992293    1.54954985379033    5.35324047657871
H        12.68725246900553    0.95400660149323    6.62212177992483
H        13.12007635133648   -0.08858186310817    5.25821778118895
C        15.68565877737318   -0.60064998901834   10.27552873581632
H        16.35714216195696   -1.37717733128498   10.63504093286158
H        14.67847154563286   -0.81007134710375   10.62657759971685
H        16.00454013901533    0.34586999097491   10.71447178227278
C        18.14655776414290   -1.15435832256189    5.93032113017137
H        17.83715607274024   -1.89475904037328    5.17879890413000
H        18.89303704736591   -1.59831556922255    6.58329309555760
H        18.59465095856354   -0.31360892059658    5.40041927851227
C        15.61600167762719   -0.67311906633972    1.17934806371157
C        14.42186981581197   -0.36142351373523    0.53162153643861
C        14.23512844626916   -0.82755441989776   -0.75928268095989
H        13.31191121678698   -0.60077482203138   -1.27352132211426
C        15.20469751921333   -1.58639477523225   -1.40117149189676
C        16.38268974527222   -1.87915811351909   -0.73092852162703
H        17.13927951105465   -2.47479925907771   -1.21951291835063
C        16.61032903411908   -1.42990888203372    0.56108559110141
C        13.36865231656650    0.43590160083852    1.23849550117726
H        13.01865602158393   -0.11415633119682    2.11273265482898
H        12.52257394779952    0.62289811833815    0.58285815360149
H        13.76565069063128    1.39179960010586    1.58075291449268
C        14.96191448101509   -2.09550995570212   -2.79007928407122
H        14.34555873136166   -2.99395836976604   -2.74997879554877
H        15.89848049311888   -2.34294053328189   -3.28370557547487
H        14.43306847220216   -1.35509472930675   -3.38684540908310
C        17.86373336690373   -1.76276718379197    1.30405593536245
H        17.60408719562979   -2.26285416834660    2.24175942108200
H        18.42518452624418   -0.86094726337793    1.55103786022091
H        18.49632472391863   -2.42372093722589    0.71884623876943
C        13.07020046749865   -2.54535343608405    3.55131637858410
H        14.32308720173175   -2.52946259081483    5.23677767071093
H        14.72550351379793   -2.97062862251619    2.33136213506247

