50
CSD_code = TUTWOU | q = 0 | S = 0 | Stoichiometry = C18H28O2SiW | MND = 10
W         4.45855669129482    3.29271807109316   11.26823106938455
Si        5.61257933293977    1.20134130153987   12.16738675219598
O         3.73979257450044    5.51745756074648   13.30880753645362
O         7.08013311439898    4.47030565739775   12.45496500134553
C         3.79157026925163    1.43703783832924   12.58114969604716
C         3.36369460826195    2.51693734953215   13.36689049158613
C         4.07801680711160    2.82046483526866   14.66881498166649
C         1.87677360665152    2.78764585177021   13.45342333348798
C         6.89914634101726    1.08678026449639   13.59575834858158
C         5.83311047510426   -0.48229596301930   11.26460420543462
C         6.11915085119028    3.98540356998990   12.02249629215342
C         3.99728968999952    4.64489960999759   12.59335729026512
C         2.81886638277737    2.79912007431876    9.59981712741705
C         4.08740341460676    2.31380067856522    9.14818559503948
C         4.96651135974876    3.42790538248957    9.02013209436703
C         4.24374112457425    4.60413064196431    9.41510654121375
C         2.90794424644153    4.20239658302868    9.75163762061843
C         1.55642431019787    1.98766780184203    9.61906551116196
C         4.30968188396020    0.96272152390249    8.53603984818237
C         6.32032707398002    3.41288650516841    8.37488258241374
C         4.70842124837357    6.01777521366231    9.21523280592641
C         1.77662901046892    5.13928264951742   10.04947562947280
H         3.02618040126227    0.90710849551932   12.01499826948631
H         3.85133699206047    2.02780309097098   15.38409871215217
H         3.73285517978513    3.76023842673355   15.09503282609232
H         5.15475308824796    2.87152861501673   14.54159183961848
H         1.37361884445134    2.56384869760734   12.51478940898418
H         1.43630631082257    2.16173931325987   14.23233106957618
H         1.68122630925524    3.82556170806642   13.71847505398744
H         7.21684475719741    2.06337171692230   13.94410035846654
H         6.50073258728895    0.53882269939738   14.44398977607359
H         7.78323174125113    0.56115728021778   13.24910033919831
H         6.66323040670959   -0.44468726687752   10.56701922526095
H         6.05669000680797   -1.25847156319767   11.98942938943688
H         4.94985071005791   -0.78801884426052   10.71758893400809
H         1.71928874055402    0.98764249670119   10.02255961320876
H         1.18053133380462    1.87339356446928    8.59927669479142
H         0.77750023742346    2.47316426189825   10.20520708007896
H         4.03432527922162    0.99743599738978    7.47850765306786
H         3.69600296158953    0.20071762904805    9.01268278730740
H         5.35179454177930    0.65919677473079    8.60159483402554
H         6.22583786773034    3.60038064110751    7.30274423687205
H         6.80789443549491    2.44928361280781    8.51035429584109
H         6.96321423992997    4.18239954551635    8.79909362498474
H         4.48477634752817    6.34718273276135    8.19791491648985
H         4.21300755663870    6.69515157946354    9.90873279460005
H         5.78304477402696    6.09871729732127    9.37236180611527
H         1.00794588530568    4.65883892132987   10.65258500812060
H         1.31527779293679    5.47525906350964    9.11797491854699
H         2.12713625398620    6.01805051096524   10.58810417919446

