87
CSD_code = TUVCIX | q = 0 | S = 0 | Stoichiometry = C31H47B2N2P2Si2Y | MND = 9
C         3.55578879412510    6.31374801797627    2.65582448440953
H         4.54140293766935    6.79770797416047    2.61891966576158
C         4.37200615602090    5.89766569420551    0.02025588052254
C         3.66421431275727    6.36843165892481   -1.07731646496650
H         2.59692016201196    6.19685716826590   -1.11758984754322
C         4.31865723235932    7.04715437481131   -2.08981736234311
H         3.76499739410512    7.41026276669491   -2.94300159768353
C         5.68372201470339    7.26625703942581   -2.00399790708879
H         6.19780295638538    7.79348246331861   -2.79394633034924
C         6.39025570250345    6.82345254352673   -0.89680599976197
H         7.45185619404717    7.01092296616906   -0.82294277319630
C         5.73682381676226    6.14971077535428    0.11873127663770
H         6.28361495174110    5.82477387955719    0.99417359515749
C         4.20918250877055    3.48367396616986    1.68507524800065
C         3.46167293255048    2.67472775404752    2.53492067155145
H         2.52857396162342    3.06474959285385    2.93009108177024
C         3.89650470060452    1.40145264164789    2.84646996783999
H         3.30810325660695    0.77086564766649    3.49674878388585
C         5.09109583069784    0.93447412368295    2.32127904537106
H         5.43587045392713   -0.05975829765439    2.56374230036049
C         5.83839845054218    1.73879481033319    1.47776275626461
H         6.76450057828682    1.37008793738966    1.06113116641596
C         5.39989639473571    3.01104897195990    1.15250394231964
H         5.97269249484743    3.61956202555769    0.46864116509216
C         3.75286319981087    7.06280170713857    5.36677169793632
C         3.13066553459159    8.27869725171131    5.10355886918364
H         2.46550462895230    8.35670023967890    4.24991649710233
C         3.37400867675260    9.37465874117161    5.91080698866855
H         2.89021699659999   10.31694441559645    5.69998452222545
C         4.23948441116125    9.26045366202781    6.98768918259796
H         4.42980234668010   10.11403063302286    7.62138316352431
C         4.86179161487661    8.05137822805085    7.25137546403810
H         5.53728174885979    7.96253198119616    8.08985304634682
C         4.61896852939825    6.95165005887809    6.44647547498461
H         5.10459946490542    6.00914928917655    6.65754587682283
C         4.39496127846491    4.34391193831560    4.82413816551270
C         3.93116897879440    3.21716737038156    5.48632451281916
H         2.87398292149913    3.12603356495056    5.68565187744814
C         4.81633262428103    2.22579454023110    5.87126002557087
H         4.45353670765566    1.35277139971599    6.39392537373693
C         6.16480962343487    2.34798614195688    5.58149746839969
H         6.85381620426983    1.57009665984377    5.87513956582617
C         6.63203412247573    3.46838357120879    4.91240892939247
H         7.68382517305205    3.56353032199080    4.68500792979130
C         5.75089570496877    4.46445762462613    4.53835372390469
H         6.10769666208239    5.34785355221750    4.02443417895832
C         0.44018452028043    2.26911567231683    0.80272757774027
H         1.13076398086977    1.60567012832094    1.31544628297779
H        -0.13135489624661    1.66894834321731    0.10264378194695
H        -0.25411938159806    2.67022154643820    1.53647810544985
C         0.10506463878636    4.59853622693490   -1.26219587987596
H        -0.50893125986176    5.28919696832943   -0.68691754196450
H        -0.56055533738950    3.88794863391930   -1.73952874134859
H         0.59568339416764    5.16126879874790   -2.05156971569912
C         2.73947155627031    2.91117624054267   -1.17812712197714
H         3.50344960314670    3.64308695553815   -1.42404557383787
H         2.34809306466850    2.51413228079075   -2.10875495511669
H         3.22460656536147    2.09554627578813   -0.65097707666953
C        -0.09852644212804    3.51429382117833    5.90251383351239
H        -0.65656321917580    3.39211402156396    4.97830963562504
H        -0.80889829211310    3.48818257055220    6.72163504467279
H         0.55485351842705    2.65361190715214    6.01159506616619
C         1.86815710543568    5.33548253030424    7.51586169827099
H         2.80001894723604    4.78217867363725    7.46437049243771
H         1.30389861579217    4.95600436832633    8.36131060384349
H         2.11478955577329    6.37204785983764    7.72438358751554
C        -0.41744566995912    6.62641057517748    5.89125105060814
H         0.08109352757578    7.59426071572719    5.86092910146609
H        -1.04102614153588    6.60997295290860    6.77970500930560
H        -1.08024173959773    6.55670541945975    5.02723842585037
B         0.74917542735055    8.72895730067667    1.92785755118733
H         0.37912826205426    8.10705507751213    3.04619369192153
H        -0.19703450196926    9.31464186137816    1.52585889662609
H         1.12162561798806    7.87861309454407    1.05537161974597
H         1.66445043386888    9.43702678929443    2.19401359760286
B        -1.69304805561316    5.37549093086579    2.21343256237621
H        -0.65926916224426    4.85968124427886    2.84780690588410
H        -2.44908523929400    5.80022622858826    3.02936257527032
H        -1.31500889392572    6.30015214353169    1.45460402246025
H        -2.16142121203223    4.50387653496693    1.56228187437930
N         1.89240326190940    4.87778417665907    1.02613086232581
N         1.72211264628976    5.29332673146089    4.40594403163881
P         3.43600901005942    5.10661206127433    1.36700604095878
P         3.26860678954052    5.68238993709829    4.28011710600576
Si        1.33917387101272    3.67953345951939   -0.12556274020326
Si        0.84020667306929    5.18307294568541    5.91079215072790
Y         0.75620751492400    6.21945660649175    2.44965127679898

