58
CSD_code = TUVDUK | q = 0 | S = 0 | Stoichiometry = C25H24N4O4Ru | MND = 6
C        12.02755928901316    3.93072462681952    6.98280787176380
C        13.18111503047808    4.63956697538303    7.25076988506142
C        13.28588953499548    5.97214614271751    6.86186157033952
C        12.18186671288140    6.51996319465248    6.21405885229190
C        11.06398335683553    5.74435042927984    5.98154728707813
C        14.52414462956376    6.77001213570403    7.10482763706771
C         8.83207393283597    3.83806233771301    8.73380271449718
C         8.65908689728223    3.59554037382953   10.08071054351677
C         8.82883719924556    2.30590212602053   10.58229353128588
C         9.17515219542780    1.31737190071427    9.66500883063716
C         9.33494065827852    1.64085764243136    8.33209526681044
C         8.66292737440713    2.01160072124854   12.03703152063407
C         6.62691237948627    2.39924067904021    6.03307215595780
C         5.47971065346879    1.69222816769786    5.73919491388891
C         5.52637693585663    0.63087032789130    4.83775639871240
C         6.76819214108259    0.34221410784315    4.28115175885940
C         7.87125692682702    1.09845621750678    4.62620373989422
C         4.29886591159351   -0.13811538332994    4.47633668063485
C        10.49832533848025    2.99314496292273    3.35870501921875
C        10.67715405536497    3.25213451225089    2.00804282918350
C         9.90946100650913    4.24549797192144    1.41255819362276
C         8.98844590528592    4.95292099149926    2.17541630696253
C         8.86199825969312    4.64330506083876    3.52130659761800
C         7.92752891980455    5.34299952399014    4.52420586728570
C        11.22665577681764    1.91000605314735    4.17448012850508
N        10.97452009153251    4.46305382654360    6.35213707420849
N         9.16691797271957    2.88090938877478    7.86016563384797
N         7.81648009010594    2.11881044636662    5.48714464870155
N         9.60872992721086    3.68538459166912    4.06883172168599
O         8.05337039534518    4.95974920714181    5.73480767076052
O         7.16694926724625    6.21046119901387    4.12631383178456
O        10.82143499272294    1.77892524051284    5.37736595472160
O        12.09830341183239    1.24475000494522    3.63899472100292
Ru        9.39532999611932    3.29247327211611    5.91662811199058
H        11.94336746743887    2.88528185692123    7.25793702044630
H        13.99984344624186    4.15146187602125    7.75680333350192
H        12.19248432746409    7.54902238979038    5.88896083687842
H        10.19689480392534    6.17297671557117    5.49389797094047
H        15.11209034458773    6.33992096938808    7.91156307336371
H        14.27780079194054    7.80090918033685    7.34905297209013
H        15.13812001562364    6.77777395324893    6.20380344631264
H         8.68042614449346    4.82660660080861    8.31297263008460
H         8.38668510186810    4.40454300961271   10.74117632651445
H         9.32318107217688    0.29881096816627    9.98982677392713
H         9.62697824712418    0.89447042487028    7.60067552654939
H         9.53919460475761    2.35593664825649   12.58679209147384
H         8.54997770174918    0.94444752327328   12.20855928268090
H         7.79536924701224    2.53178676669280   12.43749786020257
H         6.59896425108240    3.24349828279566    6.71283733225571
H         4.54756232880393    1.97022194759599    6.20653276625955
H         6.87971453700313   -0.46913161681165    3.57829700645513
H         8.84260013410246    0.86403442571732    4.20804952679199
H         4.55533901422126   -1.10359438534683    4.04815785769239
H         3.72044284540365    0.41947831960889    3.73930229271833
H         3.66753386953202   -0.28845769226656    5.34932174985004
H        11.40496743594461    2.67734491481846    1.45691773399755
H        10.02790206406612    4.46663987494237    0.36210662345554
H         8.37036303709333    5.73209806916858    1.75742249553595

