51
CSD_code = TUVJUP | q = 1 | S = 0 | Stoichiometry = C24H23O2RuS(1+) | MND = 8
Ru        2.27607660668731    3.70368738062559    1.66346374611153
S         4.15605947603711    4.66874793351913    0.30558688764427
C         2.24046651832042    7.18370841568041   -2.08386553161033
H         1.99562132905776    8.23327397726504   -2.04949868887115
C         1.85705944405782    6.40728412320705   -3.16158884821691
H         1.30398506105262    6.85682621677124   -3.97106229300746
C         2.18098921750338    5.05748402407373   -3.22274251052478
H         1.88271149423061    4.47110722545682   -4.07711833168515
C         2.88962380318101    4.45556986935501   -2.19618018883440
H         3.14939325056344    3.40863749719176   -2.23536260157295
C         4.75281777808255    6.69222991346055    2.16938990416809
H         5.29061730303042    5.97682913617849    2.77231341269369
C         4.64474923899324    8.01742696199213    2.55743833829153
H         5.10250388733332    8.34029160521568    3.47900079977422
C         3.95856749200566    8.93169382355606    1.76778615824634
H         3.88562019820514    9.95903980496743    2.08779199948058
C         3.37590543541329    8.54566454947046    0.57499591232976
H         2.85443916958918    9.26335505225616   -0.03789247583758
C         3.47045886745195    7.22070609849852    0.16256064143741
C         2.95492040341103    6.60367800189356   -1.04084194263745
C         4.15015294552733    6.31174902645919    0.98574112434541
C         3.25061720905239    5.23553739779322   -1.11449659444480
C         1.76637666360054    5.35225152912154    2.37645557272668
C         1.00408339473887    3.87910126626862    0.30913538110855
C         3.32143289574205    1.74270846125679    1.71201475337940
C         1.94188824590539    1.47965511355633    1.87339622467325
C         1.48974438568884    2.18623395621698    3.05448473324916
C         2.65278904677503    2.77677161034239    3.68698712155749
C         3.76633733347999    2.54598802653371    2.84820426402969
C         4.24800997208372    1.05820908759961    0.75524396801049
H         4.64516581786355    0.15707167034128    1.22654805468409
H         5.09004549485207    1.69383916183611    0.48595571610379
H         3.73173806244048    0.76138369134259   -0.15519447574403
C         1.11853210842017    0.50498165223869    1.09330851129096
H         1.13457748882621   -0.45767093526534    1.60762359669077
H         1.51137181167807    0.35865575986520    0.09012063600674
H         0.08199341516304    0.82626086587221    1.01650770277527
C         0.15584347446901    2.00853236552032    3.70315789498255
H         0.17810732475610    1.11620308914349    4.33173252335024
H        -0.63069800861753    1.88059036019377    2.96267603057923
H        -0.09568441153148    2.85920105342667    4.33273510458579
C         2.67399112168112    3.34753638205736    5.06973222574508
H         2.77863061918037    2.53046679918307    5.78584949732932
H         1.75159118322285    3.87716694372355    5.29799909858409
H         3.50788420813682    4.03085878978882    5.21127417996237
C         5.20411207479589    2.77584130043994    3.19695529954555
H         5.61812142489285    1.85630543132029    3.61537815706516
H         5.31165322439210    3.56076397887259    3.94237153127320
H         5.79648787237624    3.03883129988240    2.32140121510846
O         0.19990298721133    3.91327095865176   -0.49725950745843
O         1.44901463900479    6.32336229579115    2.88138607151886

