91
CSD_code = TUVKUQ | q = 0 | S = 0 | Stoichiometry = C30H51MoN3S2Si4 | MND = 6
Mo        0.16937011606347    1.35094605054017    3.77490475020697
S         0.29907445625067    1.60721483183984    1.41279797222922
S         2.24075686156638    1.26593540270552    4.97631159394658
Si        2.66878736828531    3.64172997098719    0.48146221383110
Si       -2.97232394766082    2.50034427164679    1.46733304085946
Si        4.09121350417591   -1.07135982885911    3.57356211003758
Si        1.03904927330222    0.82436258936947    7.94463938263987
N        -1.49448319729924    1.70406383508644    4.95810874688843
N         0.32001080578118   -0.54921458513791    3.36234117177677
N         0.24567715635912    3.29049030582419    3.95716127526722
C        -0.14352865088858    3.28395083844788    1.07015675355876
C         0.85711145811753    4.18317103346563    0.68540549308825
C         0.48941676303814    5.50239348104444    0.44875664948706
C        -0.82308997411202    5.91814809311063    0.58198861685912
C        -1.79613738540506    4.99541921409698    0.91246749979310
C        -1.48806134339773    3.65700122989917    1.14484589523142
C         2.85491696227625    2.19328148504771   -0.74795251460406
C         3.43431021641229    3.29653325048112    2.19405134619293
C         3.64716800827897    5.10051879310811   -0.27121780126558
C        -4.17973793595708    2.82735718935679    0.01684029226529
C        -3.79222912995167    3.05012099667189    3.10289135645976
C        -2.74058556978913    0.60557298784948    1.48889959149534
C         2.12893459293311   -0.39240809786547    5.56991049189769
C         2.77983517823742   -1.43115275870888    4.90204349509386
C         2.50609569526970   -2.72923693641261    5.32192989848252
C         1.63094965049808   -2.97912956546125    6.36248750229845
C         1.10113369797175   -1.92112691726261    7.08058520936358
C         1.36039986199224   -0.60308960758873    6.72030480248436
C         5.39553380104224    0.13803901391807    4.26742970987863
C         3.37552226623569   -0.43423192241927    1.92561239132773
C         4.99380102367732   -2.71256965449240    3.18870891519402
C        -0.03851223836813    0.13005592706869    9.36443235184867
C         0.23308081859315    2.47212076967409    7.42995027343837
C         2.78545325090981    1.21475939010179    8.62521440850227
C        -1.38382361466663    0.49773687297463    4.81355497332860
C        -2.06792760651931   -0.72133915163260    5.28846859455540
C         0.41393297839368   -1.66231219084348    3.05459376280640
C         0.49213936785690   -3.04864828549334    2.68032969932802
C         0.29958183511622    4.44286823933948    4.01419689158769
C         0.35368064579999    5.87592916747686    4.08514815791932
H         1.24616097381719    6.21421417592664    0.15514516422154
H        -1.08884124876137    6.95186696474460    0.40762913116776
H        -2.82518967070575    5.31545749017783    0.98486870988445
H         2.44573203124009    2.45643367264197   -1.71955604554636
H         3.90235792870307    1.94211348839549   -0.88977625035909
H         2.33953626180395    1.30367702341879   -0.40427565863699
H         2.75129912938179    2.72923002348569    2.82732589746026
H         4.35382336137190    2.72571340381160    2.11178355363684
H         3.66689209484538    4.22078979982977    2.71604547569562
H         3.67065753187985    5.96394478202104    0.38559845632316
H         4.67543357535278    4.80299148882119   -0.44660747241795
H         3.23434144576065    5.41554097764287   -1.22371319723389
H        -4.49570258369587    3.86406369203720   -0.01603398459959
H        -3.72652065430075    2.59511814774799   -0.94181006711104
H        -5.07333416399764    2.21945867292242    0.11422398374022
H        -3.14620034459939    2.83841183211231    3.95318513895287
H        -4.00294187545103    4.11514942567808    3.10440692726207
H        -4.73211122570738    2.52941670839042    3.26054307636401
H        -3.70858178752607    0.11116048715631    1.49254339595669
H        -2.19065908183356    0.25861991678275    0.61925930508147
H        -2.19325862721589    0.28156186050070    2.37433838169641
H         2.98860723997150   -3.55650228287911    4.82287058312669
H         1.40375134561921   -3.99670979101721    6.65048665521642
H         0.48636031785318   -2.12285372510671    7.94524984499009
H         5.79927192490257   -0.21950889755704    5.21058271057315
H         6.22540932281361    0.25251586684641    3.57581548953577
H         4.96867447666434    1.11954716332515    4.44427526061827
H         2.61993507351425    0.33226071701132    2.09110307105931
H         4.15703429557217    0.00544759079243    1.31370953849127
H         2.91356366416348   -1.22673434205341    1.34359698323215
H         4.34241924000535   -3.45205641749240    2.73351805365788
H         5.80558700375522   -2.53004310788733    2.49296042015371
H         5.42462056782902   -3.15340962053106    4.08131073515709
H        -1.00879977660739   -0.21418212455440    9.01976638065028
H         0.44837629994866   -0.69355991093190    9.87541711816553
H        -0.21529073211788    0.90553220095442   10.10179210855993
H         0.06396686819772    3.08742146851573    8.30971587261054
H         0.87064120103402    3.03071802395750    6.74933331259882
H        -0.72683713613441    2.32943271737229    6.93840245068837
H         3.25527528061322    0.32797609010982    9.04056154678286
H         3.42994109299967    1.58847260683113    7.83528145379289
H         2.74676226833042    1.96660710326055    9.40745497817862
H        -3.12317107388471   -0.51636922899923    5.47283675388248
H        -1.96935005609508   -1.53121760986874    4.56495561943561
H        -1.59503253028863   -1.03623801380547    6.22034879476261
H         0.33119049629949   -3.67932999470484    3.55569867635195
H        -0.25979508366747   -3.27897596186144    1.92389124175395
H         1.48143797518402   -3.25889388388845    2.27475929796229
H         1.23608425612055    6.19510420459362    4.64077655631234
H         0.39007055061837    6.28793313896515    3.07588197076796
H        -0.53969446397970    6.24423625735376    4.58896563378628

