71
CSD_code = TUVLEB | q = 0 | S = 0 | Stoichiometry = C27H24F6FeN4O7S2 | MND = 6
Fe        3.06364520111376    2.69423327159442    3.60169872514105
O        -1.61564307373341    1.36779355402128    5.07642702693281
N         3.25755774954806    2.38677241614578    5.51069917894659
C         1.83343948726183    0.49082075917815    5.75741388818403
N         1.34897716883195    3.20962525053601    3.45207479591912
C         0.66034523516322    1.20702828402537    5.57213100149305
H         0.65311612282675    2.27717056608605    5.68717536642487
N         3.36334193346908    3.16468056540652    1.82860234002365
C        -0.52776813660631    0.55830131859176    5.25073919958613
N         3.44093136504687    4.54629667410843    4.09298600790240
C        -0.53747338266029   -0.82653477350074    5.13548757437497
H        -1.44009067854222   -1.36125757582168    4.88603124933759
C         0.63419471558099   -1.53851721115431    5.34190072140122
H         0.62021987699035   -2.61253948153838    5.24229693831354
C         1.81520134713455   -0.89739430234840    5.65643670832106
H         2.73155038409089   -1.45267052635472    5.76253230194555
C        -2.83225843005623    0.77279865360348    4.69200459362118
H        -3.53670392297590    1.59458621447708    4.57221719846480
H        -3.20681630131077    0.08748118935222    5.45897401617423
H        -2.73510880347686    0.23626769350157    3.74326119564100
C         4.45299073593160    4.45009406124545    5.14519582571939
H         4.41676861618273    5.31649912633338    5.82100737365268
H         5.44046694394812    4.41102701432018    4.68331015643474
C         4.27236428316718    3.16087569080364    5.90317263443154
C         5.15173741810893    2.78116571848880    6.90034298654466
H         5.97174266921183    3.42406905861563    7.17308699514315
C         4.99246950061003    1.53007508651559    7.47883456865390
H         5.69528530813553    1.18065090477412    8.21893894036926
C         3.92206901741376    0.74690355581565    7.09584876682478
H         3.74969132203114   -0.21951274115680    7.53953062035101
C         3.05381905646905    1.21596168695122    6.11186495959992
C         2.17964147157725    5.06967576246014    4.63342691217100
H         2.14190122583412    6.16566550424848    4.61101510678637
H         2.10745461846040    4.73926272859502    5.67285005059264
C         1.04292573164935    4.44328186730529    3.88383863401380
C        -0.19628358308067    5.01574657989146    3.67694817061571
H        -0.40421247085125    6.00997163976931    4.04149959623680
C        -1.16759499311186    4.28537098999278    3.00394951696402
H        -2.14656829982533    4.70301938915171    2.83269896157825
C        -0.84592292904551    3.00781038888515    2.56402374913008
H        -1.57207665381350    2.40837856957336    2.04011218829236
C         0.41760155085752    2.50923350841777    2.80565057754732
H         0.73665662621402    1.52547123799855    2.50969258823898
C         3.88726230887944    5.26230024478054    2.89246191946828
H         4.86720180559188    5.71456354600403    3.05418785414428
H         3.17145094650087    6.05394218586631    2.64228800465639
C         3.99341723148535    4.33211530148924    1.71347687731887
C         4.66702291877794    4.68616959195951    0.55623450626737
H         5.18962382791704    5.62731329859076    0.50461042270219
C         4.69051983814896    3.79354886939692   -0.50350258719533
H         5.24252707906433    4.02583637491151   -1.40074521283440
C         3.98458314519110    2.60669717820928   -0.39153452341635
H         3.95723134702658    1.89116333909821   -1.19552016479989
C         3.33119823497333    2.33532337199848    0.79648599701076
H         2.75984472769115    1.43764029822263    0.94745546322070
S         4.00613067968498    0.03054793503624    2.98059587525328
O         2.75993601416849    0.79539080059969    3.16597849202969
O         4.79342181577524    0.38917721348273    1.83750941029498
O         4.61840489727436   -0.46183279487451    4.17244047444185
C         3.16019387585285   -1.52062375776376    2.24478253881161
F         4.02613069990774   -2.35725697657528    1.66362024050457
F         2.42999790253416   -2.25831174773000    3.09589922617116
F         2.30980546777185   -1.11186469574425    1.28061325499579
S         6.34180559146986    2.54292882434328    3.47019524304714
O         4.96312769744617    2.08004730074932    3.62514509130301
O         6.39750321531418    3.85677763141752    2.86701768680512
O         7.10890997021692    2.40801986921297    4.67197057881202
C         7.23714733708856    1.50521053773925    2.20533702411020
F         8.49690438365487    1.98414355442192    2.24113865846253
F         7.32360660247746    0.20808943814114    2.44006730084342
F         6.80320541436212    1.72610339812621    0.96806043955753

