77
CSD_code = TUVLUS | q = 1 | S = 0 | Stoichiometry = C38H35ClPRuS(1+) | MND = 9
Ru       -1.61018818022081    3.29415414155511   13.79117293650481
Cl       -3.76724185376139    2.40695731062487   14.14338623463068
S        -0.68874835041517    1.56270051710339   15.14314662751692
P        -1.88117304771605    4.21499877865712   15.85760532628568
C        -2.73779183890997    3.16537687863367   17.08137498329790
C        -3.49927580081287    3.85056040093290   18.00588313353630
C        -4.28562150174312    3.18912334430593   18.95212941216717
C        -4.33103056248314    1.82556073091303   18.94773681600882
C        -3.55832371657087    1.07667463364412   18.03554411762801
C        -3.62270650299219   -0.33143808103617   18.07830882713574
C        -2.86218989018251   -1.09274718036316   17.23969694134871
C        -1.99939881008755   -0.46597513728589   16.33740199707880
C        -1.93692480060405    0.90346571903047   16.24686422952130
C        -2.71568353622494    1.73930344732406   17.09059076300172
C        -0.28994682679112    4.60346772173261   16.63765860609617
C         0.41573487887729    5.72991373157060   16.21851253974249
C         1.66149966170601    6.00554686085022   16.74908863253488
C         2.21860968162282    5.15277823772410   17.68976702489718
C         1.52480977973464    4.02734245387055   18.10318201006270
C         0.27414586234519    3.74886437192345   17.58059485009695
C        -2.81153456009326    5.76929138716322   15.83171047019215
C        -2.50732561139719    6.85530558962788   16.65091911926303
C        -3.27210176631969    8.00567568810207   16.57413673152509
C        -4.34100445005139    8.07899209643787   15.69442388008717
C        -4.65547818958889    6.99414876560591   14.89099645393334
C        -3.89320663211821    5.84224453649307   14.95702461132962
C        -0.54260790467051    0.27195840990341   13.90621182405765
C         0.71445145045982   -0.27050763744787   13.68064712357887
C         0.86789626182276   -1.22671610392438   12.68987588102558
C        -0.22580840913205   -1.63531376286463   11.94369568226097
C        -1.47928221339115   -1.09233683319172   12.18587644850690
C        -1.64657243259743   -0.13154274378503   13.16741916466657
C         0.30001835038834    3.51417361047424   12.49735483821777
C        -0.13975796744870    4.79554791391826   12.87519656321317
C        -1.44655377702006    5.23715596173711   12.55291052857968
C        -2.34256899020548    4.39877017363860   11.86722934519007
C        -1.88268388228739    3.11089216813012   11.46061479152804
C        -0.59052360291591    2.69039816413718   11.75171142227291
C         1.73234603581631    3.07726907639125   12.68847069445679
C         2.28890795351267    3.44323536992176   14.06486296145385
C         2.58324077541639    3.70068598443526   11.57510594778006
C        -3.70497311020025    4.86124794061523   11.45431627949728
H        -3.50296462190915    4.93057951507546   17.99521430756120
H        -4.86497659141870    3.76299932710079   19.65815583471749
H        -4.95869046447053    1.29137988378422   19.64466245746566
H        -4.28133579665318   -0.79328908994368   18.79754230523935
H        -2.90187435920832   -2.16980397393882   17.27107551259766
H        -1.37285132076116   -1.07824222174091   15.70750049365759
H        -0.02807374511516    6.39418405724540   15.48904843644974
H         2.19971733908035    6.88641377118257   16.43226794385306
H         3.19195398852035    5.36863112496183   18.10215963946567
H         1.95720874441806    3.36556230314172   18.83791104559822
H        -0.27133498337327    2.87542380363366   17.91088570782727
H        -1.68386143463449    6.79749975538095   17.34887560519153
H        -3.03508800541163    8.84677075008494   17.20783895500380
H        -4.93209549444184    8.98022138259022   15.64066737735020
H        -5.49750057247771    7.04598803866080   14.21722807423846
H        -4.13734085657071    4.98170949449995   14.34787860811698
H         1.55329073616986    0.04921575739040   14.28023204991556
H         1.84137918604583   -1.65442440583782   12.50671000225153
H        -0.10290094904537   -2.38194597643529   11.17461760307771
H        -2.33163757368576   -1.41639781589613   11.60905801663123
H        -2.61942278674448    0.29723155093137   13.36617007111695
H         0.55601927026453    5.48587538656041   13.33382315895907
H        -1.73927584266979    6.25640988668608   12.78614581749239
H        -2.53737306448650    2.48537482588774   10.86384283883423
H        -0.23189396782806    1.74235608724446   11.36489531114272
H         1.77131382011679    1.98694533694532   12.57826116091334
H         3.24626846377023    2.95176939824125   14.21505935680485
H         1.60936556123721    3.12597791863997   14.85602669507143
H         2.44779091918568    4.51442875590112   14.15722819159132
H         3.61405489322285    3.37109454773145   11.67057555356787
H         2.56077735568952    4.78630527232755   11.63805898906203
H         2.21543246929989    3.40379544844653   10.59538375366245
H        -4.46590631613521    4.16915403257883   11.81743731338785
H        -3.77199372424240    4.88291507823117   10.36629442790387
H        -3.91811224850097    5.85568635549958   11.83921061256661

