54
CSD_code = TUVLIG | q = 0 | S = 0 | Stoichiometry = C28H21Br2PPtS | MND = 4
Pt       10.67028827664808    3.45171996062997    9.47183915516992
Br       12.15948175945930    5.34150386745288    9.38990611463538
Br       12.30966806710819    2.00338187448011    8.47476451706654
S         9.01388937319914    4.91420421828610   10.24533678725871
P         9.13105600913442    1.78220477739754    9.63172969972422
C         7.89787320243603    1.85841548899882   10.98553156808038
C         7.27387041122339    0.65128537724879   11.23055639381158
C         6.41098330207460    0.46793929167235   12.31138356747659
C         6.22176919650718    1.49132788659758   13.19600277323218
C         6.83712426618916    2.74332709555065   12.99633698177918
C         6.64199032053726    3.76811372683980   13.94688164857347
C         7.21488451893159    4.99679578844875   13.78659227395486
C         7.94881599262434    5.25641468929369   12.62648402215512
C         8.14313741979352    4.28746424754895   11.67044503520110
C         7.65275819468070    2.96539504742214   11.84231053412640
C         9.90242282995331    0.17572420016161    9.99150034382948
C        10.76873253625117    0.15486632434706   11.08179652106286
C        11.43170973693814   -1.00752668435117   11.41932663782109
C        11.23778128990815   -2.15438770247468   10.66466725959972
C        10.38316349695416   -2.13451176411287    9.57611260170735
C         9.71277532436743   -0.97265353934965    9.23428229934624
C         8.14090749049470    1.47891912895545    8.13904675120716
C         8.85572326706204    1.33264914381460    6.95035451963425
C         8.18674178783508    1.10821606069131    5.76318649442112
C         6.80218374275551    1.03702450253633    5.75107069921972
C         6.09050906622064    1.19263057898728    6.92811920202164
C         6.75328161697937    1.41640535840980    8.12226919089874
C         7.83518586275664    4.66475451632541    8.93249831451377
C         8.32801933783215    4.64177089784215    7.63282324042298
C         7.45084859079370    4.52991957746235    6.57152505690841
C         6.08775712900117    4.44521263210017    6.80544683177867
C         5.60295964695566    4.48662558517682    8.10171827709111
C         6.47193066361102    4.60681438324483    9.17246176042438
H         7.47067182426669   -0.18358665655932   10.57162830862642
H         5.93034848657647   -0.48753179753745   12.45534816936670
H         5.60070624968097    1.35975858240431   14.06954758356097
H         6.02800244388991    3.55382818045954   14.80890901690691
H         7.08310350929826    5.77536047422171   14.52129489809482
H         8.36073812413249    6.24056479650059   12.45966379198846
H        10.93179457307363    1.06648783813506   11.64728435248509
H        12.10930867483556   -1.01853196404188   12.25952966360228
H        11.76374226174167   -3.06203789129295   10.91984799432736
H        10.24141854086938   -3.02584280501238    8.98286047257446
H         9.05458179669537   -0.95816238706337    8.37649994009980
H         9.93639864580089    1.39211160503327    6.96671439199776
H         8.74527562771469    0.99034565938241    4.84702120550178
H         6.27786955357239    0.86275343178216    4.82336945160843
H         5.01162684699010    1.14087962136950    6.92025500324352
H         6.18776070870864    1.54299093077379    9.03456121512385
H         9.39670085429068    4.72231035832353    7.45572930997890
H         7.83384706011554    4.50627323989891    5.56329136178911
H         5.40312629489609    4.35245221346812    5.97659292647549
H         4.54054653643164    4.43168847955205    8.28628765302131
H         6.09010765920172    4.65284155256880   10.18225621547217

