73
CSD_code = TUVNOP | q = 0 | S = 0 | Stoichiometry = C35H34AuN2P | MND = 2
C         5.13092103647754   12.28252605305569   20.32798673339477
H         4.56484388379334   11.63551239055526   20.98696294540994
C         7.41469924505954   14.89199086332296   17.82207120534048
H         8.34897181938535   15.13889062249047   18.32580165735388
H         6.87054407314930   15.80928604081531   17.60687345767256
H         7.67247898887823   14.40442111708641   16.88122032788146
C         8.78461015475746   12.69433231866782   14.25203749998811
H         9.15523837024674   13.39092939079061   15.00327788207671
H         7.69215929777003   12.71177875165792   14.30147966277126
H         9.09783320209654   13.03492330204319   13.26795045981372
Au        6.31980678493090   11.56412842713393   16.53877964642835
P         4.13360395735523   11.70865826322915   16.10341691474742
N         8.33648457667521   11.42029453464376   16.75279331841466
N         8.47353010130502   12.46122144127750   18.84925718627121
C         9.07495130068883   10.72517282609833   15.77951092002291
C         9.29457939616672   11.31238086646611   14.52731875222063
C         9.98317729809980   10.60167091914122   13.55700692285459
H        10.15516289653381   11.05572112071522   12.59058936002534
C        10.45944032246944    9.32915039882688   13.81469015002422
H        11.00004146547359    8.78723120409673   13.05229545866752
C        10.23745257650075    8.75149573968285   15.05159078175512
H        10.60115462458590    7.75296618358627   15.25197161913864
C         9.54666569352125    9.43238074962595   16.04173366234434
C         9.26829981651191    8.78610048590400   17.36609918711004
H         9.83284934048099    9.26712035810972   18.16373223259423
H         9.53178834834293    7.73115830536053   17.34217505934908
H         8.20950425917925    8.88390597532462   17.61104592608491
C         8.97556431965028   11.87852733118554   17.83397076433810
H        10.06101098892488   11.76835768233096   17.84707451446457
C         7.15138679100079   12.74139195305224   19.08672174717148
C         6.59844471726792   13.97470166430316   18.68334799096569
C         5.32960707849140   14.32735824191098   19.10537255521774
H         4.91476440461532   15.27867029177234   18.79914529621024
C         4.58872456567612   13.49043383270596   19.92221922012681
H         3.60130726184286   13.78359292317809   20.24918730808236
C         6.39664160828872   11.89497551615086   19.92354721788607
C         6.98750396389930   10.58829508928536   20.36298784298983
H         6.38107434417026   10.12531300629831   21.13881264434835
H         7.99629279623821   10.74798440201808   20.74047441263683
H         7.06059405633676    9.89903838275287   19.51957054146735
C         3.76404780319757   11.60816545605217   14.32909859001568
C         4.68070328368797   10.96177718849333   13.50628574098353
H         5.58395973437132   10.54975238304410   13.94004577814980
C         4.43926339268930   10.85786058086463   12.14845514319070
H         5.15414221305363   10.35795059623345   11.51229731808945
C         3.28505073398765   11.40162610202402   11.60838842492983
H         3.09860144071015   11.32575270455057   10.54758577958671
C         2.37062955206656   12.04851628502231   12.42541015094161
H         1.47274000589053   12.47366185576512   12.00151886253560
C         2.60522841466256   12.15450142354505   13.78385735389224
H         1.89744800788223   12.66265819408004   14.42515340403497
C         3.33338899799728   13.26289767542323   16.57954863514077
C         3.89474323469972   14.42342372516124   16.05184878115879
H         4.75333750225768   14.34538834752374   15.39633645903136
C         3.35934680244145   15.65536144533663   16.37042657886829
H         3.79237905305427   16.55569867320419   15.95987849136318
C         2.27183888936007   15.73446831894457   17.22758738376900
H         1.85654941896382   16.69809451835389   17.48316357493797
C         1.72231735993386   14.58193185364362   17.76309082395602
H         0.87975016182107   14.64713233502428   18.43597466285153
C         2.24926632551572   13.34265704703065   17.44328238978092
H         1.82334998094542   12.44286328318714   17.86464178291635
C         3.10532182305495   10.42128595935171   16.85801921497075
C         3.35688276512819   10.15730995915910   18.20311743724493
H         4.11955014436388   10.72883279844003   18.71816973120510
C         2.62933519860104    9.18527774858524   18.86211121968801
H         2.81922680515131    8.98512703676903   19.90607435443898
C         1.66245128784543    8.46307126145618   18.17895754359151
H         1.09708863267789    7.69929809600126   18.69191670310567
C         1.42439885732727    8.71384486442151   16.83754967991423
H         0.67569805950875    8.14494446380619   16.30602909432288
C         2.14335559657414    9.69087108897053   16.17061360594829
H         1.96009879391224    9.88290776391606   15.12256431990332

