40
CSD_code = TUVNON | q = 1 | S = 0 | Stoichiometry = C10H26N3Pt(1+) | MND = 4
Pt       -1.60198270996194    5.95422056486901   16.11322043329400
N        -0.19352350167569    5.85843330080995   17.63939615023207
N        -1.64926861872479    3.74651092310315   16.23993961438804
N        -2.84044901184404    5.73083781642123   14.45720460778090
C        -1.51858276742418    7.99291845235970   15.96132323747082
H        -2.44865933464339    8.42589210512239   15.59065509352378
H        -0.72009216104589    8.26831732972124   15.26369350506371
H        -1.30963396265873    8.48068363710187   16.91427002346960
C        -0.53929177870863    6.55333893263031   18.88670266089976
H        -1.53666413532084    6.25817994187054   19.21406671493272
H        -0.53459676423630    7.62906142422638   18.73054234046134
H         0.18338742555965    6.31731558391814   19.67368890359958
C         1.07709611796634    6.39470341393406   17.12938886184203
H         1.35852755724978    5.89299646278323   16.20281224093562
H         1.87713235338301    6.25185821353048   17.86273200962220
H         0.97818451280514    7.45904904267534   16.92842574910662
C        -0.02626929123709    4.41465891437351   17.94101235906580
H        -0.73387124060116    4.14328135071476   18.72690470084031
H         0.98209486898676    4.22811732006553   18.32804524050811
C        -0.27964992921125    3.53204196456276   16.71638979673111
H         0.42318640837712    3.79716450517878   15.92082875673391
H        -0.10338836887764    2.48069419326005   16.98210071690170
C        -2.60029688270633    2.99356803362900   17.05200592610269
H        -3.62173428127773    3.21316243435593   16.75092275203922
H        -2.50641903429656    3.26221913606705   18.10142438740473
H        -2.43329465080374    1.91423909240098   16.95331910625829
C        -1.84428744907030    3.46107812246877   14.81542334242438
H        -2.02247944024456    2.39165415999082   14.63721278807480
H        -0.94175624375612    3.74536817477443   14.26576882282891
C        -3.03667140141593    4.26802670185131   14.29583837437702
H        -3.21185011409952    4.02852616391133   13.24079613191511
H        -3.93115785746084    3.97697886241247   14.84982330058626
C        -2.13780602005827    6.25538044020488   13.27687285490704
H        -1.15077716981050    5.80009671809364   13.18716116226824
H        -2.01400549701377    7.33227285986798   13.36521636069945
H        -2.70601217469312    6.04445450333302   12.36529451139682
C        -4.16122457951239    6.36753919547757   14.54936032689453
H        -4.64818542071400    6.08319100777025   15.48270490876684
H        -4.79348548038123    6.07011449892843   13.70730005183420
H        -4.05774197084102    7.44955450123009   14.53311117381896

