89
CSD_code = TUVTIN | q = 0 | S = 0 | Stoichiometry = C38H45BrN4Pd | MND = 4
C        10.89164593441943    4.79914460681034   17.06539592871118
C         9.57863663577342    4.35702912132908   17.25143035280157
C         8.51991113658816    4.88733592254157   16.52895301637646
H         7.51596808794567    4.51843868046100   16.69341028168305
C         8.74203262530797    5.89118965820561   15.60485414458858
H         7.92012655114299    6.30433315274640   15.03922427715712
C        11.08293496344115    5.83504199386743   16.14591135445700
C        10.02562747974788    6.37172808387482   15.42530753135495
H        10.20682929121690    7.17168123827529   14.71943982114083
C        12.46628823536284    6.43198652165246   15.97931876182793
H        13.13315900782801    5.71895090500870   15.47853356893456
H        12.42461330375922    7.34814361719719   15.38516181644883
C        13.70457341712225    7.86092300289069   19.02192690706511
H        14.03082173419513    8.58437033811642   19.74031226927828
C        13.13933375449605    5.84102611389918   18.26231425093433
C        13.34408964868128    7.99841548660939   17.72588593064823
H        13.30416154694188    8.86605445874149   17.09964507312629
C        13.92648015573301    6.03543319974077   20.62811219055235
C        15.26792169146867    6.11433636513963   21.01157553604265
C        12.94050198158404    5.54065090270699   21.49254476301834
C        15.60520270108751    5.73502679075504   22.30384670471597
H        16.63453552398650    5.78421763236889   22.62161244120530
C        14.64260264739386    5.28609306060880   23.18227442446635
H        14.91779265517598    4.99934042627700   24.18636273487631
C        13.32658928388709    5.17772744369272   22.77437141575717
H        12.59769732327305    4.79884615680479   23.47090186472706
C        16.36109252249507    6.53809966150356   20.05773733304297
H        15.93007261131280    6.75071091632770   19.07513706491881
C        17.36069436419661    5.39326778071705   19.87489618121020
H        17.90747055621102    5.20046662463333   20.79344292497289
H        18.07597525834645    5.64511663281030   19.09480671549035
H        16.83544171362062    4.48416683128464   19.59368659398676
C        17.06556082627120    7.80466305477810   20.54999979905931
H        17.82527820212449    8.11022635246898   19.83374908967624
H        17.54942290916497    7.63008827820645   21.50745356473556
H        16.35888019649178    8.62388617886431   20.67126168011327
C        10.82341881827190    6.77742211480097   20.98673539367755
H        11.34698234141269    7.46265012032176   20.32419585051484
H        10.80178038356256    7.21529545875822   21.98374291429831
H         9.80001840122249    6.67938137245528   20.62898765995974
C        11.50312786948275    5.40457195999121   21.03223823132478
H        11.51447875423316    4.97558326378584   20.00325112976200
C        10.67880365387538    4.44937102211867   21.89554145143348
H         9.69436789792398    4.31029490115270   21.44979993851691
H        10.52748325543167    4.84668195729913   22.89719652775311
H        11.16951387269788    3.48048325264247   21.96364825466641
C         9.30916779369642    3.26775427063547   18.26880169558969
H         9.52734874370489    3.64350380520911   19.27901241925426
H         8.26422803447684    2.94962098806228   18.23336217954448
C        11.48908807831927    2.18923653742076   17.91088545526453
C         9.70410447084441    0.85013145272328   17.77254012765953
H         8.66655808207010    0.58620638063176   17.79816378880848
C        10.80135775121159    0.09753649902210   17.53177649333630
H        10.90301925080818   -0.94133750611875   17.29584149190230
C        13.21869214050264    0.46167485085773   17.44689154273274
C        13.92822375588123    0.83160219758666   16.30271716480894
C        15.21543281304759    0.33672773849549   16.14086205387782
H        15.79155105419876    0.62096163612952   15.27387682476493
C        15.77057411990441   -0.51340491061598   17.07547546134570
H        16.77331673137902   -0.88847120235219   16.93456112898018
C        15.04880848945156   -0.87810884006064   18.19451293567321
H        15.49574170455267   -1.53687824019096   18.92174459225465
C        13.76512518598376   -0.39663013551911   18.40644595069998
C        13.34461606743364    1.75824121538127   15.26100453107038
H        12.29045263214975    1.95974331186125   15.49161642420359
C        13.40061964556997    1.13556107710498   13.86449270202095
H        12.92178013186819    0.15827197052503   13.86292955122141
H        14.42649969601050    1.01497210361200   13.52677755418463
H        12.88119431749148    1.77432476001349   13.15286915861911
C        14.09029948197167    3.09529099550394   15.30043400646886
H        13.70366660090031    3.75636783198372   14.52535647023200
H        15.15595216791434    2.95097420058971   15.13771481788089
H        13.95052785741154    3.56185452594417   16.29455916917175
C        13.82431229539252   -0.45543401668686   20.90982281228960
H        14.71104341775374   -1.07807888044572   20.98574670492532
H        13.21617296539764   -0.61764485434291   21.79732292446347
H        14.13686729609815    0.58479117876657   20.88028791106886
C        12.67489444091570   -2.28727864216119   19.62233186659108
H        12.11106905175904   -2.56214870748458   20.51118931899314
H        13.58266272441784   -2.88483308981293   19.59321430030035
H        12.07793048626280   -2.53550446661584   18.74650807738167
C        13.01493869175389   -0.79429643854472   19.65641187086080
H        12.07863165544324   -0.23083182314108   19.71230009655681
N        13.01043970518484    6.75028512054237   17.27839305695363
N        13.56960279043495    6.53071326429714   19.33963720067611
N        10.14729063583994    2.12106332612748   18.01025821966238
N        11.88726517261708    0.93120099989002   17.62319992838482
Pd       12.44111447301733    3.96352556484900   18.10223448868308
Br       14.31667567312824    2.99875133516100   19.36537986947341

