76
CSD_code = TUVWOW | q = 1 | S = 0 | Stoichiometry = C34H36N3P2Pd(1+) | MND = 5
Pd        5.28750688268115    2.61886334880554    0.56523589330141
P         4.21427368678185    2.42661152801075    2.54618538593827
P         6.94296831068720    1.69359801473701    3.47095585641845
N         6.07265329580045    0.70455553238550    1.07713900574673
N         6.65918749932423    0.44557069252007    2.26591422790261
N         5.31090337645508    2.08270989567859    3.80461826350320
C         4.56620646029769    4.39585142755257   -0.25431275985189
H         3.53986938504720    4.73836249034835   -0.14207241041340
H         5.32031011131779    5.14311267749719   -0.00005336112230
C         4.85755184705548    3.49441304763439   -1.30402865338327
H         4.04823613518750    3.05657070372049   -1.88998499155256
C         6.14532934118873    2.96991521082971   -1.37320048005753
H         6.98948079853606    3.60106608452211   -1.09266541982689
H         6.37128647512871    2.20823201119179   -2.11219970089022
C         5.16642802951716   -0.51411983556568   -0.84483769245786
H         4.67377133224432    0.44436643749733   -1.05125879186798
H         4.42282435309320   -1.30765366799522   -0.84881601675888
H         5.89082377277330   -0.72367528379506   -1.63188231288210
C         5.84095483220224   -0.45102881066157    0.47750476800962
C         6.31488084843641   -1.49473534130317    1.28618223573500
H         6.28290846559017   -2.54197574628541    1.06814744599870
C         6.82546282705196   -0.89479573791731    2.41586212924890
C         7.46240991627742   -1.49600860388548    3.61122464895111
H         7.80813356696508   -0.71937016201138    4.29103146223822
H         8.31122991363423   -2.11018632096244    3.31520274213598
H         6.75620197226582   -2.13999462807303    4.13382768090051
C         7.42363622657098    2.97929357426458    2.23681566383692
C         8.45478417753064    2.68014906477348    1.33999329636912
H         8.83810805795122    1.66906401695135    1.27625801051003
C         9.01255778686069    3.67980894863568    0.55941548744132
H         9.80931609951501    3.43967451638007   -0.12860505935635
C         8.56080638009640    4.98623802893924    0.67067472356979
H         9.00392757128459    5.76428306333136    0.06761818956381
C         7.55083630954595    5.29630850556351    1.57016529607812
H         7.21874427494287    6.31909260732501    1.67741228693974
C         6.98876676927771    4.30386574980468    2.35905546390888
H         6.25508644645775    4.55945731926774    3.11678171566018
C         5.57485887583992    1.14852167543629    6.08462709500377
H         5.49377872352785    0.15547935451640    5.64517794423378
H         5.11401085807030    1.13628751355174    7.06947717953805
H         6.62750259290433    1.39595901730929    6.20541513279180
C         4.87380429070150    2.18441512732730    5.21194977127627
H         3.79617357617009    1.98270419644846    5.22411848614118
C         5.10922598941478    3.57449361210195    5.75350096126697
C         4.08009255751127    4.28739644075110    6.35222582489891
H         3.09960325275536    3.84277213200982    6.43990283560446
C         4.30425394150832    5.56388802318525    6.83733821973316
H         3.49696539070277    6.10889491676710    7.30117487218652
C         5.55841694119854    6.13955023755178    6.72751338618059
H         5.73214345628650    7.13610099393790    7.10289049595449
C         6.59366885068254    5.42924088999199    6.14252623700624
H         7.57682435745410    5.86769246314530    6.06334832145356
C         6.36852845699619    4.15141601493571    5.66451955893550
H         7.18421730142609    3.59259918689675    5.21587403164715
C         3.00566159011201    3.57828729305771    3.26055288703832
C         1.82328221766811    3.13391842219097    3.84430908611847
H         1.59825818840461    2.07632600210402    3.87597918914270
C         0.93391740391118    4.05114571542123    4.37529340095653
H         0.01735010444446    3.70675139405631    4.82984955425201
C         1.21620539829755    5.40695645472442    4.32276202292052
H         0.51994228144766    6.11731527502336    4.74111659671069
C         2.38206138156293    5.85298879613997    3.72032387075864
H         2.59261288546024    6.91002758730554    3.66527740049164
C         3.27066567274096    4.94211523901158    3.18155579046409
H         4.17075858227855    5.28094828638917    2.68458431992299
C         3.26801949189786    0.89295223317902    2.27738043052426
C         3.24443889196041   -0.20576966964567    3.12547316500669
H         3.76494968364760   -0.17205621844432    4.07161868639049
C         2.55955519790712   -1.34992243876412    2.75048866706414
H         2.54195323618661   -2.20406876433179    3.41040451772361
C         1.89954458988953   -1.40051838492030    1.53450277349938
H         1.36655770024504   -2.29395272790431    1.24811618329747
C         1.92837874856710   -0.30884447188768    0.67824423212904
H         1.41840607271986   -0.35501320222323   -0.27225707230001
C         2.62059280602858    0.82988660534156    1.04237516278164
H         2.66255492588349    1.69822441858525    0.37786455176809

