62
CSD_code = TUVWOY | q = 0 | S = 0 | Stoichiometry = C28H29N3OPd | MND = 4
Pd        8.81711102385852   18.45710762587596    7.80078918680876
C         9.59550748646361   18.50950441565822    5.89678201337646
H         9.03482829474380   19.17275400827371    5.23017636164744
H         9.56368995974069   17.50528450917383    5.45570498481616
H        10.64023197584506   18.83798964837202    5.87369092747227
C         9.68477630988151   20.13479782888215    8.38102021938009
N        10.01210960116753   21.26697019454301    7.71990065001737
C        10.75719365486508   22.09574441297175    8.51353978735952
H        11.12301745848810   23.04316757161969    8.17816633073277
C        10.89225511828414   21.47102751943544    9.72210619372693
C        11.63146617949217   21.77532973162176   10.89672087903331
H        12.20362626602534   22.68930914913188   10.91783328033406
C        11.61674743325642   20.89662018360257   11.91834628565816
H        12.19676685452125   21.07472734974341   12.81162877477359
C        10.77260762315688   19.73570124928770   11.89159628088424
C        10.65210969972541   18.92510729578793   13.02353859868594
H        11.26127825350683   19.13359280265786   13.88977266379182
C         9.73255136262736   17.89593602324984   13.03304820095704
H         9.63677882859724   17.26841520653202   13.90839240429173
C         8.90972533514333   17.67756081533055   11.94988444710800
H         8.15431832515434   16.90502203743717   11.97894512652253
C         8.98462040425032   18.45124587326932   10.76874492961577
C        10.00044776547236   19.46108945360749   10.74725302961912
N        10.18625279532716   20.27830482311056    9.62825736108192
C         9.58514094307821   21.60931723248113    6.41246117916823
C        10.53035391573726   21.84896747569537    5.41453271631412
C        10.08461609735214   22.21935489180611    4.15488717843349
H        10.80973378892014   22.40095426613990    3.37446333355499
C         8.73316455214801   22.35162245150180    3.87080463943620
C         7.81488790222551   22.09879616120000    4.87875350914920
H         6.75886183838282   22.19205286902224    4.66895168668577
C         8.21598910025923   21.72733113731066    6.15329233993342
C        11.99976851660051   21.69440802141203    5.67193826653346
H        12.43185429302173   22.63357402388849    6.01838554457812
H        12.51129880808575   21.41079591454865    4.75527921195013
H        12.18815547568416   20.93421234875085    6.42674968357298
C         8.28842927838279   22.76172188212858    2.49993833104407
H         8.60415813461250   23.78377797009356    2.29208901803768
H         7.20676796970532   22.70959876021318    2.40848856320638
H         8.73542724989511   22.11636992778131    1.74568933599737
C         7.20052376665991   21.45864090538948    7.22258713179797
H         7.25966958714543   20.40310192266483    7.54135939701889
H         6.19803375006927   21.66413132952005    6.85652411193387
H         7.38850717090785   22.08086147384579    8.09801831241473
O         8.13395803866283   18.25829767092393    9.82871994533549
N         7.98137143297368   16.63375343728122    7.46680599799712
C         8.65059833399755   15.56685621949003    7.90550820534060
C         8.06957513680227   14.30376402973736    7.89716669425724
H         8.62832473630780   13.45142519714842    8.25140948901242
C         6.77212875796692   14.16009731548498    7.43743743622433
H         6.30129719539437   13.18854874547324    7.41710874754993
C         6.08290433365844   15.28547182613895    7.01656619609004
H         5.06366396151909   15.21284897522325    6.67040237711893
C         6.72011873935102   16.51844158738191    7.05327894572724
C        10.03358939624783   15.79294698477268    8.43671544813643
H        10.53671487179353   16.58832853957196    7.86360109199964
H        10.62382741978947   14.87957030323842    8.40288944475980
H         9.96137145732997   16.12001949380146    9.47988798975319
C         6.03484817204110   17.79140391798556    6.66952694076395
H         5.85007717584165   18.37038130240249    7.58141247197392
H         5.08597231678846   17.60118920390341    6.17404425637118
H         6.68829837505997   18.37735455547219    6.01288591315052

