76
CSD_code = TUVXEN | q = 1 | S = 0 | Stoichiometry = C31H38N3P2PdS(1+) | MND = 5
Pd        3.89820330641110    1.49766571114154    3.83491919124648
S         6.12189435902049    1.08848932688143    2.74093002152339
P         4.12020050970534   -0.25473497988228    5.29038538897257
P         5.46653166191675   -0.76289309140159    2.92147309326367
N         5.26598641375481   -1.28230411820968    4.53690158231007
N         2.98736697281623   -1.36822500567333    5.87604516192501
N         3.48840160131391   -2.40174237737421    6.59546599030286
C         2.20518706481717    2.73192461470633    6.22324855649373
H         1.87747617967441    1.77234728631824    6.62341749808098
H         1.44284239961004    3.47194523628743    6.47591362367572
H         3.13554395695670    3.01597365385831    6.71590825282821
C         2.37169140166116    2.67565918937743    4.73384741793419
H         1.47683419296062    2.38506873240331    4.17468382776949
C         3.29490135986561    3.52393012334240    4.08713956575826
H         3.96444252258426    4.15009798963897    4.67901133522165
C         3.54897138172211    3.32257548188969    2.72867661412110
H         2.71687163498423    2.97336321318559    2.10217556702939
C         4.61086983660302    4.09055389465801    2.00624026022029
H         5.00838649625342    3.52314858560268    1.16578589921386
H         5.43415194356788    4.35320137281773    2.66961488755476
H         4.17762403753225    5.01013108105090    1.60650231102570
C         4.96044832422918    0.41423974780420    6.75495851242877
C         5.63074258527751    1.62072178274700    6.53448247260058
H         5.63434279353169    2.07536227357237    5.53286025849457
C         6.30581464302335    2.23580573745680    7.57197393825404
H         6.83272702495114    3.16257322882039    7.40126182428114
C         6.29973764159721    1.66195044048406    8.83488988169648
H         6.82262865956363    2.14472519055534    9.64593711445388
C         5.61958281059421    0.47606852732962    9.05895300650573
H         5.61183421798398    0.03617291903633   10.04435198745813
C         4.94671044157092   -0.15212268491770    8.02465714120026
H         4.41626922457003   -1.07725906683431    8.19582928314881
C         1.64557613517229   -1.53402585721082    5.64828648879364
C         0.84786717663760   -0.54487323512677    4.88457932311816
H         1.49047649205353   -0.00095759987957    4.18158881987450
H         0.37676151131659    0.16981321097670    5.56032413812031
H         0.06007887742802   -1.04889571942755    4.33020881257879
C         1.29452132246864   -2.70570411150790    6.26179066303855
H         0.32322530060649   -3.15363731349928    6.30268641497719
C         2.48473267452909   -3.21230907121237    6.83997108398853
C         2.64949596383584   -4.46061796634038    7.62446516035026
H         3.69388425960107   -4.59795696296616    7.88913705101065
H         2.30644171381623   -5.31707712623643    7.04675054334451
H         2.05309975970426   -4.41065210507961    8.53409485933327
C         6.25555073768101   -2.02654517061266    5.33391627097749
H         5.90689858910519   -1.94104481006352    6.36940393630373
C         7.63925620770581   -1.40420639657337    5.21522008440071
H         7.60354000838251   -0.34764268076094    5.47875364177887
H         8.01549246250425   -1.50119045170469    4.19816299654478
H         8.32999171865135   -1.90510177745750    5.88832309227543
C         6.24854506779599   -3.50335431557912    4.96448191512020
H         5.23838530681452   -3.89708561548168    5.04436046676389
H         6.88281834838759   -4.04892026084574    5.65756882450858
H         6.62204549117684   -3.66250520915270    3.95641784657883
C         3.75000176016769   -0.95193584320313    2.30924226721025
C         2.98289831498466   -2.06246924008671    2.65019068163946
H         3.39441125745915   -2.82833889264835    3.29303705256362
C         1.68903327742747   -2.17536431991442    2.17116099816564
H         1.10037965190784   -3.04371596169225    2.42504805465562
C         1.14808571542095   -1.17616154801722    1.37719725233818
H         0.13611575887871   -1.26595517373113    1.01366367671015
C         1.90579299437576   -0.06441034182048    1.03968696633849
H         1.48750297812613    0.70144063429036    0.40313447265163
C         3.21246225410268    0.04961775982605    1.49301761903018
H         3.85093132356624    0.86336375741312    1.14222048808656
C         6.49939506132964   -1.89832600538411    1.96228292910165
C         7.76893615418173   -1.47504614688829    1.58252740242301
H         8.12578904361995   -0.50350026810967    1.89677502891554
C         8.56071261058294   -2.29298243906248    0.79751173060999
H         9.54751518020218   -1.96594392458071    0.50862937693903
C         8.08238649281200   -3.52384520067627    0.37739454623434
H         8.69941693742895   -4.16049314860869   -0.23742674160654
C         6.80708191421026   -3.93417422739524    0.73426215977942
H         6.42941278238344   -4.88643073136134    0.39469902433567
C         6.00953605461880   -3.12371491647035    1.52140539026276
H         5.01399975621295   -3.44193729280915    1.79110572282767

