89
CSD_code = TUVXAJ | q = 1 | S = 0 | Stoichiometry = C41H42N3P2Pd(1+) | MND = 5
Pd        4.66571599292001    3.41041165688332    1.42263618862289
P         4.96151860203712    5.38349900477466    0.30457544618735
P         1.99432531080134    5.35239343780235    0.48759390728165
N         3.43784832632602    5.97448342686873   -0.19013659575965
N         2.42665212266193    5.38748723494745    2.18284513990216
N         3.37687906353630    4.59523029225250    2.73366837466912
C         4.63107009639660    1.42142403773708    2.33176736974120
H         3.84014660319607    1.03332650910547    1.67941326389641
C         5.86794119816137    1.69282556694691    1.74563443512570
H         6.76749287672658    1.81857214952569    2.34528439074394
C         5.88238897380128    2.04463650745089    0.37084335463357
H         5.17995210409967    1.50434948614237   -0.27470716486324
C         7.10817157992717    2.48563562789501   -0.30312533508059
C         7.97377865871204    3.40388359958556    0.29462264146893
H         7.73425898626625    3.80826050942139    1.27341923168497
C         9.11544368514668    3.82437654601736   -0.35707815051532
H         9.76998124757971    4.54176072523937    0.11458871614772
C         9.42029736178942    3.32942707706499   -1.61522224993097
H        10.31386168900553    3.65720676403889   -2.12314886895821
C         8.57314733209084    2.41526602345934   -2.21806359178755
H         8.80865465620591    2.02440583134978   -3.19622277746106
C         7.42218222422248    2.00288386416983   -1.57349685441307
H         6.76448779378223    1.28927341649458   -2.04945481668445
C         4.41952427879299    1.14681324726577    3.75283120225240
C         3.10938787414181    1.09595535704282    4.23935829242218
H         2.28978198499426    1.27319278609264    3.55795018256975
C         2.85633308553524    0.84241504197420    5.57252940405747
H         1.83801321339974    0.81043979260290    5.93006777124087
C         3.90675514026064    0.62060196406076    6.44951172592187
H         3.71068580886282    0.41534531370784    7.49048354837540
C         5.20985069169634    0.65319365922123    5.98003017378435
H         6.03099942202387    0.46755566770088    6.65559992759633
C         5.46781455186852    0.91554853562894    4.64808330530141
H         6.49098394383087    0.91714149813641    4.30232855716008
C         6.04938822645712    5.69038014962640   -1.12008240795534
C         7.01131674083426    6.69500496369265   -1.12483031911480
H         7.11738609572048    7.34978054384349   -0.27211465846353
C         7.83758021865853    6.85316714838918   -2.22328335037388
H         8.58001693020891    7.63662021324123   -2.22376513112694
C         7.71693498823439    6.01121579111004   -3.31600068280831
H         8.36290403027715    6.14005589445465   -4.17049143509215
C         6.77538767006140    4.99467426707077   -3.30664053125897
H         6.69033752196820    4.32750428535803   -4.15076141972782
C         5.95372368979467    4.82778614218265   -2.20920647145979
H         5.24395800653050    4.01210141717992   -2.18059655900839
C         5.55339089334961    6.55408309316209    1.57596563497327
C         6.23825130915177    5.99518658464375    2.65242777100230
H         6.39269309500040    4.91233847325541    2.67936797445960
C         6.70969388613741    6.79429817761309    3.67725443746094
H         7.25034236762613    6.35594555217976    4.50280012722719
C         6.48362004424737    8.16108711012195    3.64437572008677
H         6.84239686230075    8.78752299283337    4.44634683926232
C         5.79570328754872    8.72401031614882    2.58175933755183
H         5.62067829048388    9.78898662188385    2.55548980685142
C         5.33680075393904    7.92790711819972    1.54686852516890
H         4.81516853941501    8.37730862195002    0.71573094615037
C         3.28113668996641    7.04129892699744   -1.19667206996916
H         4.27857584060937    7.46200603724866   -1.36952570534313
C         2.75809517136612    6.46022638372849   -2.50510148552440
H         3.48615401909081    5.78138123770462   -2.94305403719662
H         2.56097368459343    7.25737427445388   -3.21649525401921
H         1.83010945873416    5.91892528721733   -2.31891576920772
C         2.34586130878657    8.13601711284999   -0.69361075117395
H         2.61248447156352    8.44283295884631    0.31527489850299
H         1.31824528690059    7.77776683923224   -0.68690105668622
H         2.40246741545248    9.00124764501326   -1.34908200093436
C         2.19412921185884    3.52995854539989    0.29463128771811
C         2.75125286289003    2.99178588771272   -0.87044462322178
H         3.21928737620377    3.65534163642310   -1.58818624856357
C         2.63974980245063    1.63614157267493   -1.13867798650580
H         3.06851397223763    1.22911413312815   -2.04338964966809
C         1.94510260618396    0.80873466230925   -0.26848715116268
H         1.84545543137679   -0.24360907459634   -0.48685267343386
C         1.35824734034856    1.33883744352739    0.87087789395557
H         0.79384848952598    0.69721401991672    1.53170132281218
C         1.47529435504958    2.69022260966683    1.15332527780363
H         0.98268651847890    3.10719125781021    2.02349737493462
C         0.84514371290021    7.20601324499970    2.82900251507165
H         0.27387613635029    6.90238478647783    1.95339850564969
H         1.28177587948934    8.18581542435604    2.63504512689105
H         0.17510844588261    7.30115718696832    3.67995411183445
C         1.90849114897918    6.21807334936804    3.12734747729600
C         2.56361293842307    5.94632917850060    4.30509023000346
H         2.40937579333015    6.41234391420630    5.25607316097102
C         3.48300266374751    4.92658790673548    4.00853066247083
C         4.45655658768158    4.27438715682288    4.91935276808125
H         5.15342505937589    3.66123753811101    4.34230728675258
H         3.93919743596777    3.63390173519509    5.63272308606868
H         5.00786295543782    5.02807154425134    5.47703917664604

