57
CSD_code = TUWKEB | q = 0 | S = 0 | Stoichiometry = C26H26Cl2N2Pd | MND = 4
Pd        9.68988446626691   -1.59055342973783   10.66883066517744
Cl       10.82372575551981    0.34651373640714   11.18489380301862
N         7.91658861177373   -0.55131837802961   10.86415648035803
H         8.20723737565267    0.42963656382330   10.93623756487821
H         7.29120932764204   -0.66717525450885   10.06266949729713
C         7.24526918188150   -0.96675962364218   12.10877841006138
H         6.95503936521241   -2.01973698388857   11.97557772962124
C         8.29121658436440   -0.88454184665496   13.21354810441889
C         9.11109619779823   -1.99007111486329   13.45959515732146
H         8.90749103239005   -2.94169803540733   12.96706026561492
C        10.14104881888784   -1.89205195100184   14.38242738014134
H        10.77309358225366   -2.74769198417418   14.57538573919058
C        10.35859504926155   -0.70326492876958   15.06188455206025
H        11.17016376126270   -0.62650812487739   15.77020512876517
C         9.53700661178900    0.38446082836118   14.83055709626686
H         9.70442240557132    1.31145281132287   15.35793859516341
C         8.50867926577513    0.29717371689140   13.90651439701974
H         7.87991474594137    1.15596347762792   13.71902571929119
C         6.00968781758786   -0.16341138175382   12.45024268380211
C         5.13176245453344   -0.68480248833177   13.39521103603516
H         5.34631354095350   -1.64630520987260   13.83840848855296
C         3.99932755045490    0.01370061278634   13.76800676454621
H         3.32665370260579   -0.40462181466998   14.50168952280430
C         3.72633696329615    1.24733069365701   13.19975769307343
H         2.84138296774698    1.79441766899729   13.48772911683982
C         4.59400453649974    1.77447985896884   12.26103632324301
H         4.39047016699246    2.73679162892618   11.81481444213152
C         5.73028394867575    1.07509341851075   11.88816807627911
H         6.39207754538125    1.51577388914970   11.15567306944763
Cl        8.55680464860292   -3.52773616048771   10.15237237733530
N        11.46321188667841   -2.62952365538335   10.47213879034058
H        11.17238418232536   -3.61041030156844   10.39993145292800
H        12.08907751522400   -2.51412469434259   11.27330683360455
C        12.13421598957112   -2.21394267784145    9.22733585777349
H        12.42439286769003   -1.16095999828612    9.36052907586538
C        11.08801146232447   -2.29614921863299    8.12281383083772
C        10.26814186337689   -1.19050196553552    7.87718630926995
H        10.47203695261692   -0.23906647061992    8.36993264376632
C         9.23766097641351   -1.28833327429856    6.95489369692124
H         8.60514540556369   -0.43285826357694    6.76289463821329
C         9.01961223676154   -2.47713171821434    6.27555154400067
H         8.20751250063216   -2.55389369322458    5.56789082309299
C         9.84127569567506   -3.56493260926239    6.50637743245247
H         9.67343010388854   -4.49186167013181    5.97906598269179
C        10.87015233904898   -3.47776112572485    7.42982510773208
H        11.49899895322180   -4.33661364047433    7.61674435053695
C        13.36985851378041   -3.01710409781225    8.88564123644167
C        14.25012027564488   -2.49338291322262    7.94415257398446
H        14.03733515267512   -1.53024631844009    7.50365362557501
C        15.38276729177969   -3.19159053970269    7.57140271511422
H        16.05730269052553   -2.77139311498587    6.84049889731602
C        15.65360017310091   -4.42727170212405    8.13619235212401
H        16.53875312464653   -4.97409688552584    7.84832636133127
C        14.78353720665621   -4.95682362835533    9.07135186343517
H        14.98536799525789   -5.92077116865230    9.51480835640332
C        13.64706567731859   -4.25772646005391    9.44416465172875
H        12.98334298497536   -4.70026838877390   10.17379311678637

