45
CSD_code = TUWKAX | q = 0 | S = 0 | Stoichiometry = C20H21ClN2Pd | MND = 4
Pd        6.69648825177312    0.40128467995950    3.61767475211568
Cl        7.46966174646929   -1.22020459253107    2.08731826057750
N         5.38883739432496    1.28817599907449    2.30787986792196
N         7.89215583888106   -0.47669698009626    4.86362010294426
C         5.91025622556534    1.70987314812479    4.91539106834093
C         6.01821905639128    1.73183113316373    6.30357323942697
C         5.34154302606158    2.67606651029017    7.06256163520061
C         4.54422466055765    3.62303322250648    6.44628186155780
C         4.41474586431373    3.62005818260551    5.06802956047386
C         5.07592506319154    2.66260565861187    4.31303142431238
C         5.01881721889509    2.65293815760832    2.79822092391273
C         3.72067411763218    3.15861042488757    2.21093093445090
C         2.48940590395255    2.82485340334363    2.76655691827189
C         1.31364719759524    3.28414380409674    2.20104759764388
C         1.34827662468062    4.08436140466402    1.07155829206877
C         2.56745967731970    4.43192198188256    0.51694166753147
C         3.74355499007887    3.97397105973610    1.08498172002040
C         4.27233168877132    0.33670815224475    2.37417377145013
C         5.87419893197109    1.35864042905396    0.92899971817026
C         9.17507352203058   -0.12279795048730    4.92629251696771
C        10.13140064876934   -0.91829602488022    5.53199404341185
C         9.74384774259112   -2.12509792748984    6.09421379074228
C         8.40577440030632   -2.48474667821618    6.03028612260664
C         7.51231024176343   -1.63303325629157    5.40625842541760
H         6.64739233222782    1.01034431423312    6.81528545793980
H         5.44490397539811    2.67519117686300    8.13885017176905
H         4.02582089425740    4.36605641340995    7.03477028304975
H         3.80086076171775    4.36585954603940    4.58138138778027
H         5.82493664799080    3.31714027308434    2.44917504079246
H         2.45017722263065    2.21542504432505    3.65707041696033
H         0.36626927024372    3.01712217543043    2.64566751231347
H         0.42968737290260    4.44135652211986    0.63037841843693
H         2.60482732960492    5.06365929900434   -0.35830171865299
H         4.69106445192712    4.26301766408313    0.65141090963971
H         4.64945691443971   -0.65953123260261    2.11190213983433
H         3.47321781969188    0.60512742224497    1.67201971197073
H         3.86570611179611    0.31166673776643    3.39105240411314
H         6.18139675897803    0.36217314905685    0.60635738415750
H         6.74486062835645    2.01717324203236    0.87751479349345
H         5.09340225425969    1.73144887049291    0.25480550737677
H         9.43656076048998    0.82846724383458    4.46596070393309
H        11.16195549640449   -0.60155135994922    5.55360911268039
H        10.46722515044126   -2.77166326347730    6.56692418992004
H         8.06056718173312   -3.41700884710905    6.44857551982415
H         6.45558063062313   -1.88177833274098    5.32297243712570

