124
CSD_code = TUWQOT | q = 0 | S = 0 | Stoichiometry = C66H52Cl2IrP3 | MND = 6
Ir        3.04160069306578    4.45252517390424    9.46779004019286
Cl        4.90186382470623    5.58365674307086    8.23324766715488
Cl        2.75859124637051    2.51835623696583    8.00359048107712
P         4.15266715994728    2.68777320790341   10.45592594050072
P         2.08896141171725    6.02151956060094    8.06930941610906
P         2.56627305449170    6.75452535703484   13.39005290736075
C         3.31400760612021    5.77188667937464   10.92971518650859
H         4.14794162207489    6.47020985868084   10.98791761526337
C         2.40639208642638    5.73926822044458   11.93860230546134
C         1.31016631383342    4.78669739036382   11.80506953165295
C         1.39230274862704    4.02104943498376   10.60110000976345
C         0.42124950540266    3.08584909125165   10.37513532796457
H         0.45436227841396    2.46180271654201    9.49470294261875
C        -0.62705511058459    2.85812506405908   11.29450983400108
C        -1.60285218914806    1.86668141280148   11.07450588641934
H        -1.54699142648694    1.28282608256451   10.16696833746039
C        -2.59164332010604    1.63932454684166   11.99143760905066
H        -3.33329418341799    0.87283917619778   11.81702650545274
C        -2.65352940462604    2.39809559143826   13.17018573437185
H        -3.44109518507792    2.20589899857468   13.88512960886241
C        -1.72328746997699    3.37035565025287   13.41252785123270
H        -1.76276579944202    3.95735038019955   14.32132276565843
C        -0.68938152389457    3.62272052749884   12.48888231717503
C         0.30205667474612    4.59579914888276   12.71468674834876
H         0.26417702150360    5.18170853575404   13.63003765909226
C         2.34365260163450    1.58962129935277   12.24931473341601
H         2.49768668224462    2.50096799826741   12.81061465926470
C         6.00380573739546    4.22118038277184   11.75160655288262
H         5.95124770068498    4.77154388264384   10.82144597082398
C         5.19747293613968    3.09677142575216   11.91268771520673
C         0.15670858488735    8.01604702392213   12.78582728801043
H        -0.07382331490926    7.12541028632701   12.21914719105471
C         5.45623827144443    1.78945930079679    9.55217636750187
C         2.44799831385234    7.73994740729068    8.54557913771767
C         5.95860356781076    0.61031141232335   10.09749219973852
H         5.55184817754628    0.22814382346583   11.02463594774322
C         5.99652254493917    2.29219978112196    8.37719786823740
H         5.62740861753481    3.22046486704386    7.96709525650350
C         2.43656607529256    5.76399512576070   14.89944393829235
C         0.25833029092691    5.98531988882695    7.94822081565777
C         2.40085465828534    6.01563760872701    6.27306271907030
C         5.18658653893854    7.14705818742345   14.30115386433757
H         4.98482924874975    6.39277839888005   15.04845500270063
C         7.01098845388259    1.60319177056040    7.73533125889168
H         7.42417507986605    1.99480149857463    6.81740524976993
C         2.30242439588256    4.12508135637564   17.11907282553383
H         2.24416570548934    3.48473511542896   17.98625108731215
C         3.07668882504736    4.98326475713539    5.64035076841955
H         3.45930590944138    4.15503179657676    6.21624620245750
C         6.15913159761533    2.75737534560267   14.08923035457889
H         6.23054314264818    2.17616477542273   14.99822240160725
C         4.45844795973959    8.49300423676086   12.43366066305686
H         3.68119249709882    8.78258510966311   11.73930105276482
C         6.93716302223559    3.89161233388355   13.93242226619783
H         7.60820249171326    4.19905162806220   14.72174344321606
C         6.96947721582371   -0.07330262363194    9.45030876932772
H         7.35056719206285   -0.99339164895777    9.87077943361364
C         5.29480835390383    2.35569776457966   13.08371895107595
H         4.69607392428757    1.46518826351309   13.21637942879278
C         1.66674438057975    9.25686698295313   14.20173779847775
H         2.60976335532026    9.32386610395726   14.72818311727128
C         6.86602970044802    4.61909299636362   12.75459478806458
H         7.48668843773232    5.49278596520481   12.61742747184577
C        -0.60809516359312    7.06481873565201    8.05352209987483
H        -0.22818246484570    8.06013707325689    8.23946484500423
C         1.64876093539251    5.34734568944272   17.12093126829383
H         1.08503295349471    5.65737687679018   17.98817050052067
C         1.79879459871830    8.26936795143072    9.65782409620813
H         1.08057130520450    7.65887676982145   10.18786301980435
C         3.25737089809233    5.01619514566776    4.26806471858420
H         3.78817794740291    4.21149615695849    3.78089144066776
C        -0.73889407043513    9.06993071840402   12.82882353161705
H        -1.67192908968799    9.00038344607475   12.29035797811662
C         2.06926731296468    9.55864974418400   10.07986498701626
H         1.54160737197360    9.97128809463869   10.93071634396428
C         7.49384470201359    0.41947777972734    8.26524507292258
H         8.28152408590476   -0.12070017948203    7.75966428870499
C         1.88355720414222    7.06809704466650    5.51986483092641
H         1.33754304826877    7.86357475454461    6.01076825880035
C         0.76482465078291   10.30401528621654   14.24034963799111
H         1.00055009633717   11.19554354095420   14.80222250853594
C         2.76248782795959    6.07242756476124    3.52408876198180
H         2.90947443802659    6.09971831230839    2.45376578698481
C         5.71161856317900    9.07116294356283   12.36318604390053
H         5.91710878453828    9.80925907122511   11.60297701879309
C         1.88522953908927   -0.69874787936202   10.76665858670725
H         1.69594564152380   -1.58531673133655   10.17886797760575
C         6.69896998099930    8.69634586053511   13.26125975805548
H         7.67759046351310    9.14888049234798   13.20509716053795
C         3.01435699230099   10.32122623967010    9.40979012410286
H         3.22778424587881   11.32808715839715    9.74004480470166
C         1.18796768958323   -0.48619344457346   11.94399869587878
H         0.45513079451120   -1.20618278951093   12.27814853514861
C         1.41883586986239    0.66079171091851   12.68582561176842
H         0.86269774302451    0.84208067840940   13.59464341005921
C        -0.43668788965671   10.21138032900052   13.55423253049337
H        -1.13617993619683   11.03324383181193   13.58234047284108
C        -0.25759201988626    4.72240373782926    7.66745254984221
H         0.42887730705650    3.89410817014105    7.55517597874657
C         1.71061805355159    6.17220520518136   16.01150639245802
H         1.19366287905078    7.12221370416044   16.00248802229727
C        -2.48057418456307    5.61047749665876    7.65900018181009
H        -3.54675198985405    5.46849759049393    7.55633170912116
C         6.43455026558768    7.74084851007844   14.22915770700874
H         7.20457450114719    7.45105796141431   14.92834525691826
C         2.07109406064597    7.09735134810630    4.15219128449992
H         1.67601447353897    7.91968938441364    3.57229771180352
C         3.40831459745467    8.50199904923574    7.89104107233085
H         3.94278707229227    8.08191043253225    7.05195741878862
C        -1.97226826444992    6.87283992051727    7.91144321389784
H        -2.64180455424688    7.71782715405691    7.99521550171442
C        -1.61820542408092    4.53361591318379    7.52841069076321
H        -2.00913445434088    3.54906721328909    7.31787626581862
C         3.68923057638260    9.78569277396677    8.32519415580323
H         4.43726901219461   10.37280195272325    7.81238966137021
C         4.19601292601732    7.52738486668766   13.40398828836633
C         3.02564023119384    3.71981507506438   16.00756969496982
H         3.53145576306256    2.76635063626233   16.00347296528895
C         2.81630811565670    0.22650615407935   10.32916561918499
H         3.34073483153368    0.07176647282832    9.39745963703297
C         1.36122999819651    8.10768033958771   13.47600938943430
C         3.09477915726755    4.53719294047044   14.89589620730475
H         3.65288603388366    4.23784898840290   14.01827844463467
C         3.06089745635506    1.37360261420149   11.07504548266711

