132
CSD_code = TUWQUZ | q = 0 | S = 0 | Stoichiometry = C72H54Cl2IrP3 | MND = 6
Ir       10.62987498673582   10.51661809806996   23.48839081000599
P        11.66445551163779   12.58506104426167   23.38267565717025
P        10.04570887095631    8.28115567567189   23.42587025127425
Cl       10.84625870892808   10.43370453865427   25.96975858395708
P         6.45705630719333   12.16439874369386   22.80781640277889
Cl       12.88522763577671    9.75769502456632   23.01251566362026
C        10.09224283078995   10.73410367362380   21.53427701947000
C         8.78100483910575   11.17933396738111   23.68884887507337
H         8.28354000214251   11.30731007165151   24.64939563864781
C         9.22462680020770   11.16528432058677   18.89751510468534
C         8.80810748568694   11.37950704462401   17.56172660764031
C         8.37991434525895   11.52416240474198   19.98123085324440
C         5.06373902289302   11.21035935319684   22.13335037884226
C         8.08802588507881   11.49455367231747   22.55112800682048
C        10.49134918465907   10.59047262505610   19.14848900652606
C        11.13327499514052    7.02179042729635   24.17056334846859
C        10.82626092164446   14.03555706960696   24.12614871938030
C         6.17562627093660   13.28729253431285   25.37248850366875
H         6.47812347626638   14.22906871797997   24.93737623404664
C         5.70864890344220   10.93117260048883   25.15264707977300
H         5.66308390766596   10.04123383916614   24.53860951236821
C        10.07425454884093   13.82380557086947   25.27781935856544
H         9.98943685053638   12.82259209242732   25.67547639046707
C         7.54879148088723   11.96768087487728   17.28754073553241
C         6.32753274951341   13.91369776411174   22.32455261287432
C         6.09007375471119   12.14579150233276   24.58486531484825
C        13.30517381924191   12.84924771198657   24.13650761158728
C         5.29187295316757   10.13344371066452   21.28526575622680
H         6.30095597196919    9.90043751270932   20.97877435584748
C        10.94176430801447    5.68497040429725   23.82653210676787
H        10.18139114407870    5.41660199105952   23.10508472182542
C         8.48291272201528    7.73461700541973   24.20713347695130
C        10.89043418686164   13.69090821425286   20.93691022526037
H         9.98174065850471   13.98455385253429   21.44484307721853
C        12.70344370442145    5.04815971495131   25.32366929158916
H        13.31957217543021    4.27867366579530   25.76646301458690
C         8.74190818163210    8.04585180060022   20.98725279270116
H         7.90647051554325    8.48637346413718   21.51526347755539
C         8.81026536937842   11.27655651927071   21.29750303396953
C        13.72498526007365   12.06983234545808   25.20595585299847
H        13.09318372505082   11.27701606944412   25.57475585878428
C         9.89839886274510    7.73664526219077   21.69919124889614
C         7.42980791203397   14.70866881666149   22.62465944375457
H         8.28396459932953   14.26633544507360   23.12151849021399
C        10.91910744418121   10.42343295383184   16.77379947593602
H        11.55264798158922   10.14474824562688   15.94305046919959
C        10.98107182911074   15.33132424932125   23.64366142959558
H        11.57551406056856   15.51454678920182   22.76000187339247
C        11.32002377142079   10.22725554056692   18.05087914120501
H        12.28232781332144    9.78883596238034   18.27223142184547
C         4.22483012984302    9.37821290443926   20.83379565843163
H         4.40122087318377    8.54163809366860   20.17493728328801
C        10.99538561289322    7.21549893021477   21.02381585030782
H        11.90996053265402    7.01931962969657   21.56515126115861
C         9.65138688284772   11.00675963704546   16.48394708719037
C        11.72831880367710    4.70500643607252   24.39952093959873
H        11.58211050018162    3.66972378161129   24.12517854189402
C         9.59965202892277   16.17017009602973   25.42139406256234
H         9.12210980909323   17.00169766833308   25.91986536158064
C         9.45872897682529   14.88486854641033   25.91754712264192
H         8.87638347199989   14.70785523535547   26.81021349897965
C        10.90166741742160   10.40519176675439   20.46826604558367
H        11.88103344917722    9.98808811970668   20.64841584216569
C        10.36900685540726   16.39051218804909   24.28999559303259
H        10.50111343469161   17.39590472907235   23.91416179510117
C        11.91589182274510   13.07605827159437   21.65049037817931
C         5.87872157003811   13.21079812003791   26.72237612078175
H         5.94796158193999   14.09708638287079   27.33520053020112
C         8.22479931185221    8.22772505626722   25.48326779257630
H         8.91009927330717    8.93888966040066   25.92355326050157
C         5.22631877951323   14.45807240589093   21.67466085919204
H         4.37983450940702   13.83521653067254   21.42091068114259
C         6.73192255088901   12.34543166161298   18.39003978005479
H         5.77806315135559   12.81387739519003   18.18779486441730
C         6.49547564030404    6.38992201558726   24.35161427826039
H         5.82339304525189    5.66775567538480   23.90948694601071
C        14.95435692528215   12.30591708995406   25.79527644594982
H        15.27812116248499   11.68954328201426   26.62095393304292
C         2.93440170848590    9.69447480219286   21.22691308317849
H         2.10258930749325    9.10572651012834   20.87076634637274
C         3.76927090124770   11.51572291622931   22.54615895109933
H         3.60227903400854   12.33586255691222   23.23234575585390
C         7.61748254064322    6.79865322523399   23.65195126428574
H         7.81478354644380    6.38343179083533   22.67382022117167
C         5.40841173942286   10.86677121314023   26.49911014171388
H         5.10982090154519    9.92632182330301   26.93539310098007
C        14.11731198514169   13.88413606023854   23.67879346581569
H        13.79786445831233   14.50127580375110   22.85030693257912
C         7.13540673602858   12.13057019268909   19.66372386522128
H         6.49363515026745   12.44162353694770   20.47809571501829
C        13.05891201404107   12.65788018407784   20.97688157700798
H        13.83343785157436   12.13616144645084   21.52089637654721
C         9.21659258898580   11.22204859450886   15.17506602693278
H         9.85907542948394   10.93563601523859   14.35430129937206
C         7.11417826034564    7.80058339066411   26.18671152971528
H         6.93771057865891    8.17381624454846   27.18503671097058
C         7.42447660441446   16.04856787360789   22.28485158123738
H         8.28171975282020   16.66091081994772   22.51900460367667
C         5.49317109228502   12.00584522292437   27.28497075317277
H         5.26163323102979   11.95239859147603   28.33798085318103
C        15.76691759698155   13.32409493323648   25.32854000859941
H        16.72938806436950   13.50493117221906   25.78530325566649
C        10.91952533974013    6.97527516464398   19.66290178209975
H        11.77462015064397    6.57022900595827   19.14158145454548
C        15.34371124593962   14.11473438236604   24.27202640729292
H        15.97393673846493   14.91332448359121   23.90662811986263
C         7.15499493515608   12.16569793355279   15.96307278190946
H         6.19273322497062   12.61494592788120   15.76025091727741
C         7.98318675716551   11.79353068272113   14.92098424544030
H         7.66533349815402   11.95162711809248   13.90013847267832
C         9.76110860670562    7.26956160498791   18.96457995695717
H         9.71029370478825    7.09582917420534   17.89977072601202
C         2.70754520688507   10.76076703892529   22.08353985637404
H         1.70199869952265   11.00027817643013   22.39581946054909
C         8.67051371804950    7.80848831047072   19.62901900470378
H         7.77301275928915    8.05771629592406   19.08002728824549
C        11.01985261065141   13.91139267484650   19.57915471536497
H        10.21512253775357   14.38215342323207   19.03214227991692
C        13.18619847751711   12.88495001437946   19.61841603979254
H        14.07639395514321   12.55815290098704   19.10106647419732
C         6.24025219581982    6.88826198744901   25.61824445713801
H         5.36820980551827    6.55518828177925   26.16318286848657
C        12.09789245164296    7.36054025425866   25.10851551764970
H        12.23778373032924    8.39214465309761   25.38987246118845
C        12.88299675284697    6.37325008259490   25.67881896548835
H        13.63842069982890    6.64278585352674   26.40208470174102
C        12.16966717791516   13.51170971137923   18.91769275758801
H        12.26349822687744   13.67480468093711   17.85405529560891
C         6.32342698662620   16.59433288966847   21.64444082865823
H         6.31980857573954   17.63983194878845   21.37576615328071
C         5.22919268906847   15.80017687422960   21.33980855408658
H         4.37565011774627   16.22679173963366   20.83455790508004

