118
CSD_code = TUWQIN | q = 0 | S = 0 | Stoichiometry = C62H50Cl2IrP3 | MND = 6
Ir        1.69051793372049   -4.07136991096242   -8.06201447206926
C         0.20871355783257   -2.73025973529864   -7.61722782562265
C        -1.64732901477956   -1.23365547384285   -7.99364900910420
H        -2.32539123706272   -0.75485196434228   -8.68574876366733
C         0.64746341392887   -7.32342468098805   -9.02842476384296
C         1.30554806933828   -7.14240679487855  -10.24063837064983
H         1.56979968073161   -6.14532887711400  -10.56298621534873
C         1.19140867352577   -7.09115090794316   -5.76954959961854
H         2.13155582684806   -6.95599707592222   -6.28733914210791
C         1.91813973821368   -4.00094139081536   -6.08353941557789
H         2.67615596736471   -4.53565926869579   -5.51331589887222
C         0.29726521218137   -8.60710978226180   -8.62079837168676
H        -0.21983742944620   -8.75942004863705   -7.68341115694907
C         6.53286575574155   -2.72877778268717  -11.65073891777504
H         7.33156111036362   -2.79243887836694  -12.37597740553452
C         1.67387949198285   -0.06535682497682   -8.10213023712904
H         1.68938015599238   -0.37589812741062   -7.06659749420110
C        -1.19698441897927   -6.84535249716662   -5.73253708458902
H        -2.12014200513497   -6.54305594353210   -6.20572693574127
C         1.62213741797779   -8.23478184988195  -11.02715199121855
H         2.14094265069153   -8.08782201472615  -11.96315148647822
C        -0.68174446627180   -2.10563553873735   -8.47559745199575
H        -0.62632382281245   -2.29183663484221   -9.53765201880530
C         0.09134606005417   -2.45127062156629   -6.24075909073190
C        -1.28007164547629   -4.13256828222634   -3.42395762294925
H        -1.33341710301702   -4.03728492350435   -4.49852124703974
C        -1.47423057425246   -5.50660518400093   -8.55682021698748
C         4.24886742343317   -1.84719834032136   -7.17223686029616
C         0.01753276276239   -6.64788767010001   -6.37736978780304
C         2.69623236962151   -3.62277881257697   -3.03535969498457
C         1.07221708776206   -3.16566744450853   -5.42899174047131
C         4.90311768024301   -2.89157723995751   -6.52195321885236
H         4.72387544116136   -3.90582873848597   -6.85382518532728
C         0.97682132605584    1.06853354488331   -8.47173203117499
H         0.46451731102211    1.65238109755557   -7.71997864810809
C        -0.16831615415212   -3.64538888268418   -2.74757766153157
C         1.28151978335500   -9.51208867093542  -10.61436897847698
H         1.53525024205752  -10.36615244684815  -11.22595061462863
C        -2.26285400996870   -4.65608362753067   -7.78465148777704
H        -1.86942669620465   -4.26088855208609   -6.85908479867131
C         4.50302010638217   -0.53930826911533   -6.77857061108702
H         4.02323288310895    0.28637966581841   -7.28617525180164
C         4.47313191557757   -2.55957282673115   -9.79979435480758
C        -1.09024118358426   -4.39901408571946   -0.66562855763688
H        -1.01696828173908   -4.51151832548291    0.40589048614252
C         0.49462743976323   -0.50561462605446   -2.31344655446076
H        -0.16916488343382   -1.09910596003349   -1.69990508783961
C         3.80248775696234   -2.86549596558293   -2.67167427040350
H         3.76823662911277   -1.78692230873785   -2.72981394756167
C         5.77412539351685   -2.63570589671017   -5.48094112538931
H         6.27647094795167   -3.45331828128788   -4.98428730199824
C         1.25048971224240   -1.10952859326436   -3.31044330141990
C        -2.20808037543174   -4.86913878371428   -1.33881966746213
H        -3.00515277449536   -5.34424882588557   -0.78689471937488
C         2.26328882457093   -0.45753272878841  -10.39721965267407
H         2.74125962174619   -1.06887584683514  -11.14883018363491
C         0.61528767988732   -9.69458694622930   -9.41394266548061
H         0.34459185328372  -10.68973584486724   -9.09001752401070
C         2.33938598450661   -0.82644392064784   -9.05965149638561
C         6.00691120173375   -1.32959305291230   -5.07892322757934
H         6.68802830508555   -1.12328851577694   -4.26554160212525
C        -1.75302475114079   -0.97612132566953   -6.63748946146916
H        -2.51159657188021   -0.30121612091259   -6.26604113034180
C         2.73954159318399   -5.01386888844409   -2.96662816806569
H         1.87016457313538   -5.59027570407366   -3.25551080658668
C         5.27629072085255   -1.45012511175246  -10.05964835427884
H         5.09276200964770   -0.51882229329337   -9.53928240130756
C         1.14920948655180   -7.70818521322595   -4.53412699226641
H         2.06203202922626   -8.06757121658422   -4.08038599824744
C         5.37667693160853   -0.28551692893163   -5.73340321925468
H         5.57086254874324    0.73513071088145   -5.43315790521845
C        -0.88208813499709   -1.59002140413961   -5.75511198416488
H        -0.96001094426769   -1.40664162819948   -4.68636077785402
C         1.42957547210537    1.62121843217671   -2.92358776858984
H         1.49396276777887    2.68819267550925   -2.77211413980551
C         2.09057298079236   -0.34731120758979   -4.11860967255562
H         2.66343585182113   -0.83481485915379   -4.89732937562636
C        -3.53173725968219   -4.30480787415823   -8.20200576206859
H        -4.13330654407554   -3.64455482028615   -7.59362101355626
C        -1.96725501001994   -5.97153057791074   -9.77027637945917
H        -1.35479703396878   -6.60879955897609  -10.39165674703100
C        -0.06742764208695   -3.78737557180172   -1.36556452302754
H         0.81271128127920   -3.42291890929511   -0.85166347233855
C         1.55781764134894    0.67448027881918  -10.76450918287613
H         1.49894949427509    0.95400238969637  -11.80643854586583
C        -4.02281592237510   -4.78487955056125   -9.40544298446276
H        -5.01276780649445   -4.50589653022953   -9.73602449139839
C         5.74640999555828   -3.83494562441415  -11.38277271273804
H         5.93103238635009   -4.76758897675519  -11.89554242098787
C         3.89352493879639   -5.64139297064067   -2.53799987435147
H         3.93522088315326   -6.71893091231820   -2.49146784462868
C         0.59050078059322    0.86181923317932   -2.12349259281343
H         0.00407845357317    1.33738067329765   -1.35148339875584
C         4.71875770644805   -3.75489310545922  -10.45833751135042
H         4.11250967429635   -4.62164514760739  -10.24913985633748
C         0.92038694859732    1.44246080122949   -9.80465023249544
H         0.36949834671176    2.32528008293221  -10.09562660989149
C         2.17927481612768    1.01728325389768   -3.92139548151546
H         2.82735611884318    1.60885250572444   -4.55000447374040
C        -1.23227136289133   -7.45263685144209   -4.48773969416850
H        -2.18087514887800   -7.60671737442690   -3.99321170949529
C         6.29787700726454   -1.53553873037557  -10.98457712918695
H         6.91328931825808   -0.67024070646319  -11.18760900624584
C         4.99792180520317   -4.88727336349158   -2.17245057716225
H         5.89917949695825   -5.37971175524603   -1.83949033059896
C        -2.30197319166318   -4.73742030583451   -2.71459882890391
H        -3.17089476205523   -5.10704642778704   -3.23721718778630
C        -0.06334761470124   -7.87995593548726   -3.88321272172044
H        -0.09851844052981   -8.35701788834954   -2.91397388448190
C        -3.23694344743413   -5.61313476709972  -10.18828028833261
H        -3.61226542085282   -5.97857349030370  -11.13317435866948
C         4.94980148005796   -3.50425081072635   -2.23521053833409
H         5.81065049046849   -2.91929725591864   -1.94852964694269
P         3.15471546832560   -2.36954527111836   -8.55323484908312
P         0.22849256266925   -5.86601961900808   -8.01680884798264
P         1.18454726462525   -2.88056693267847   -3.68046939963816
Cl        3.43733263539457   -5.83260277831291   -8.15041024672049
Cl        1.48206072617739   -3.70434200352172  -10.46762295575375

