93
CSD_code = TUWRUZ | q = 0 | S = 0 | Stoichiometry = C42H47NP2Ru | MND = 8
Ru        1.92666272802270    3.49435448370877    1.08910654525606
P         2.67961424856796    5.62528490559196    1.55527897995865
P         3.09570159966023    3.17810946222124   -0.82568489319170
N         3.05084409172436    3.04369577825817    4.65571369777800
C         0.73970087328344    1.58735970638690    1.05669441949311
H         0.97801935234379    0.57608852374739    0.75495640256340
C         0.77138254231641    2.07347339100092    2.38133874079918
H         1.16003017612187    1.53916721851649    3.23908333364389
C         0.15911598498815    3.34787292639907    2.42824897738909
H        -0.10229899905844    3.86319903512489    3.34320275297118
C        -0.44499467838543    3.58769407954321    1.13639700320901
C        -1.31206174506912    4.57820969115545    0.65026399210431
H        -1.62803329965545    5.39312925007169    1.28872098648337
C        -1.78526240829230    4.47755484693205   -0.63855854885873
H        -2.46426534852958    5.22853169861132   -1.01646885434875
C        -1.42167850370743    3.41005647763311   -1.46997512667205
H        -1.82481546226812    3.36407869667471   -2.47128727046336
C        -0.57927623588341    2.41672613859177   -1.02749173754627
H        -0.32060085250750    1.57837792462339   -1.66102434979919
C        -0.07846454965411    2.48908199445015    0.28070702098879
C         3.37308343429851    3.20456851745608    3.56011440073436
C         3.78517270536568    3.43268542750796    2.22882159653595
H         4.52816746225564    2.67914123308075    1.92808435757639
C         4.29809629857085    4.87402110313820    2.04265601573120
H         4.99197381584060    4.91223337653336    1.19876680407151
H         4.77270360407424    5.30118181785333    2.93122924109311
C         3.08805433376189    6.97164881945552    0.32133780981579
H         3.22192846906335    6.38456745725939   -0.59979834373054
C         1.90404567270507    7.90593171324138    0.08513103686507
H         0.98939013807293    7.32128550444166   -0.04477053521860
H         1.77164917466561    8.56120557269795    0.94781906652051
C         2.16752306251160    8.76430371077193   -1.14928941158503
H         2.26186824349770    8.11854818512834   -2.02592596216290
H         1.32713983768438    9.44074870746528   -1.31952166892711
C         3.45168076433593    9.56873207104042   -0.96468804981280
H         3.65137952412719   10.16141257712272   -1.85973300570432
H         3.32748470779757   10.26070332315212   -0.12813186144550
C         4.63261796149622    8.64389060903659   -0.68185049716802
H         5.53735515873419    9.23547993314723   -0.52527691824120
H         4.80056771669717    7.99965696703273   -1.54859221657483
C         4.36238085128716    7.78025030976532    0.55062102386308
H         4.25329353330578    8.42794700546642    1.41980961959594
H         5.21128637637063    7.11762862095638    0.72796946555873
C         2.14850662951511    6.39726711477860    3.16668195937683
H         2.23825503716518    5.53381101267651    3.84688770015802
C         0.68630762685295    6.83981751348414    3.17491699282636
H         0.56056555127558    7.74852412655273    2.58364542248522
H         0.06087765270860    6.06548610320934    2.72994181576251
C         0.25089210640446    7.11576717854048    4.61198299171241
H        -0.79568709636693    7.42876402468573    4.63236385329034
H         0.33978015628563    6.19930350239098    5.19983664499578
C         1.12903963182570    8.20018573630048    5.23082418545942
H         0.97915133131257    9.13826431445623    4.68962379898048
H         0.83837338122204    8.36591958326877    6.27003566727586
C         2.60261690118138    7.80713000526893    5.16163116270236
H         2.76933193183196    6.91117074897546    5.76331297200218
H         3.21985930973485    8.60873401823672    5.57395981530793
C         3.01584503634147    7.52629346916403    3.71718728831433
H         4.07462222200728    7.26298384635166    3.68044886123270
H         2.86687579897116    8.43218373297871    3.12620092875300
C         2.88148491818769    1.47679294823223   -1.47122025789648
C         3.19221675484471    0.43686949754609   -0.59531941524412
H         3.51723660253035    0.67560234879150    0.41119255819112
C         3.04925554499897   -0.88071073972937   -0.98537312738448
H         3.30053647534080   -1.67779414425949   -0.30010528220590
C         2.56619288502239   -1.17772319297305   -2.25022357917790
H         2.44488259679328   -2.20657518928696   -2.55566859649041
C         2.22196914503656   -0.15145802848602   -3.11233375154227
H         1.82439582277152   -0.37921787392837   -4.09106613102309
C         2.37884305816669    1.17050525503739   -2.72932292396068
H         2.09513917519438    1.95980101787353   -3.41013955398503
C         2.55409097559292    4.19024125846395   -2.24806704349501
C         1.43254285228685    4.98961710068056   -2.06849651960688
H         0.95049717852769    4.99818277603674   -1.09581288793423
C         0.95155659827916    5.76885655342198   -3.10514736963427
H         0.07766296311161    6.38595939520960   -2.95633426232404
C         1.59590424783245    5.75561321070723   -4.33095129562716
H         1.22659376638787    6.36408305884002   -5.14361001046993
C         2.71995832231064    4.96447216707938   -4.51621735327529
H         3.22314566638001    4.95807486431642   -5.47250787362884
C         3.20006269719515    4.18190674727981   -3.48233999845511
H         4.07946315441259    3.56800783626226   -3.62504180059511
C         4.92147325262446    3.34995131492249   -1.00344361354405
C         5.45027101098932    4.59966170152386   -1.32444976574361
H         4.78170908160425    5.41936716830066   -1.54400051324301
C         6.81618929602769    4.80006408437772   -1.38289821586985
H         7.20480400583762    5.77591661923201   -1.63699651351672
C         7.68349760813254    3.75380892708712   -1.11451380321200
H         8.75137452613845    3.90829713560643   -1.15696889469743
C         7.17110077410112    2.50811909121397   -0.79676686810203
H         7.84034477221161    1.68479704077292   -0.59281861903773
C         5.80273950184057    2.30666456014261   -0.73823241286783
H         5.42548920086490    1.32362066642401   -0.50169040382474

