91
CSD_code = TUWZUI | q = 1 | S = 0 | Stoichiometry = C38H41AgN5O4S2(1+) | MND = 4
N        -3.46349037371529    1.94504970586971   16.98263604811652
C         1.17197134143325    0.61681011936093   15.32901945059624
C         0.24499371365325   -0.46773771209671   14.84016504610213
H        -0.42231773553868   -0.03263780078228   14.09362370012881
H         0.82444552435352   -1.27204533736401   14.36276011118329
C         0.03004145045808   -2.05711473303147   16.67286553135740
H         1.07748305974630   -1.77888519167321   16.80905258355759
H        -0.00223517335527   -2.99774120826101   16.09810751642145
C        -0.62338255162677   -2.32907845144387   18.02949558822510
H        -1.64668861136431   -2.65063503235990   17.84777427955138
H        -0.07043753560092   -3.16695728474967   18.48866410889596
C         0.62569871507254   -0.91174371455662   19.53041797898789
H         1.36741369839346   -0.94527375958541   18.73164925483443
H         0.88485180905904   -1.67550733853140   20.28303518656985
C         0.72724944342320    0.47307811070976   20.18915334145177
H        -0.16822155383156    0.68990500296292   20.76946136015162
H         1.59290589380753    0.48832515153845   20.86196306135885
C         2.11520246238600    1.84432144834699   18.62011997859240
H         2.86340133838716    1.14056334030602   18.99803952104241
H         2.43398541436799    2.85755423055997   18.89984181934334
C         2.04781209099154    1.73143772421914   17.11858630704402
C         2.81336835833738    2.54837233838398   16.29853972007519
H         3.45256409807905    3.30575884459373   16.72468708348172
C         2.73745950904621    2.36761506922921   14.92620697008505
H         3.31448035748403    2.98935254483821   14.25856044514943
C         1.90787856465083    1.37944555126551   14.42760913478699
H         1.82114276052143    1.20503328888284   13.36678815615885
C        -1.63918937089252   -1.53386199741166   20.03892546405457
H        -1.55950862862029   -0.76064750343255   20.80351022747399
H        -1.34805036577891   -2.49120513976968   20.49437597224554
C        -3.06872715621121   -1.55003302016403   19.56042383685290
C        -3.70528667711806   -0.33584498626993   19.42960010401854
H        -3.20294198890335    0.57602699785162   19.73778881540481
C        -5.01858244837040   -0.24970575238247   18.94469311293738
H        -5.48563311541466    0.71964015567324   18.86401956433945
C        -5.68656134599303   -1.38048974626561   18.57495433970369
H        -6.69162117448121   -1.32982329705096   18.18167935213316
C        -5.07837500012059   -2.64514080416032   18.69954365953505
C        -5.76393130406168   -3.81541638004349   18.30872267021144
H        -6.76465892930604   -3.71588069636384   17.91404860305552
C        -5.18690171937506   -5.04760867428105   18.42755359003574
H        -5.71934035339601   -5.93734557337704   18.12656330055916
C        -3.89617961911265   -5.15868339365823   18.96367841291334
H        -3.45039234284941   -6.13605236665145   19.07759740102154
C        -3.20528582637502   -4.04324819962335   19.34929976923361
H        -2.22001180730251   -4.17068979105043   19.77117310376696
C        -3.75657004656568   -2.74671462319098   19.21807704129052
C        -2.41992818627667   -2.66328925504521   14.69237311110216
C        -2.99130396473129   -3.71526164358844   15.38577373781694
H        -3.33466409668032   -3.55369548206823   16.39481059439466
C        -3.13596402969468   -4.94072442684952   14.76160281495869
H        -3.58629191759258   -5.76049681879427   15.30027130738981
C        -2.71426639440494   -5.12611019396296   13.44714672677426
C        -2.14840917655488   -4.05037645990504   12.76683577729649
H        -1.82745950218869   -4.17698085939881   11.74383979397763
C        -1.99975067478646   -2.82093827446694   13.38342245701401
H        -1.58049290095878   -1.98051080893658   12.85329260256600
C        -2.89673321509348   -6.44401336310574   12.76772898203272
H        -2.84307289720223   -7.26150378316105   13.48170942202208
H        -2.14813984600426   -6.59348329764121   11.99427453096600
H        -3.87825530480125   -6.47763595835987   12.29474259847958
C         0.21307051704602    4.11965405290519   19.74786061682483
C         0.83115563662231    5.09953822193741   18.99270412364964
H         0.90568386785031    4.96432538724898   17.92506317109597
C         1.31778874148469    6.23375727869417   19.61887571493534
H         1.79837037920183    7.00324158476978   19.03359173531077
C         1.19019509034348    6.39650226417655   20.99539777616553
C         0.55894166478122    5.39762654679879   21.73455208823615
H         0.44687589262380    5.51771164825079   22.80144089013456
C         0.07360460603507    4.25996867298674   21.11728577474855
H        -0.42774813319293    3.48554072607727   21.67508186912148
C         1.69391411112004    7.63051626019795   21.67033363510431
H         2.45157677612561    8.12564866654721   21.06940391150492
H         2.10890894142587    7.39665795048406   22.64755822105610
H         0.87032380844091    8.32880588589149   21.81863668239495
C        -3.80827377608056    2.27758078568178   15.93921326387325
O        -2.48303935109079   -0.01219416662945   14.62470676169194
O        -2.96778903906155   -1.13883341197722   16.73729933912108
O        -0.47730812271724    2.88127021730671   17.55183460744058
O        -1.51920064416719    2.13021182815887   19.65127684588191
Ag       -1.61675203384262    0.72123149020704   17.53258160671452
S        -2.21136108825791   -1.09677851850067   15.52350284603341
S        -0.36421502201316    2.63023003331380   18.96255109002817
N         1.24294260516721    0.79274240697074   16.63837415457912
N        -0.58487122696510   -0.98320099201139   15.91054139476824
N        -0.69086857263254   -1.19259142625089   18.95325950098858
N         0.84489543336358    1.53985065660569   19.22844757300358
C        -4.26859050746681    2.68617963756350   14.64992118215971
H        -5.35657997440190    2.73952132759939   14.64285806459965
H        -3.93093770677015    1.94425971565384   13.92612468735351
H        -3.85320761475398    3.66130577984182   14.39964479085162

