58
CSD_code = TUXDIB | q = 0 | S = 0 | Stoichiometry = C26H26Cl3NORu | MND = 9
C        -3.22121898691178    9.28055448163632   -1.56454743340673
Ru       -1.08566360197781    7.55900177178594   -0.84308327538781
Cl       -2.27728961098568    5.73236243384125   -1.69634017481086
Cl       -2.84865766869599    7.86451741563414    4.43698531182779
Cl       -1.14188132336970    1.94483251676877    3.69266958182681
C        -3.50839942294011   11.54300077524299   -2.32989005174237
H        -3.54355521953459   12.60242159794875   -2.12096598698255
O        -1.24813451792295    6.58191090655724    0.96518406098598
C        -1.75978805771720    4.40016139622231    2.77579948371672
H        -1.54453712950754    4.02957189168463    1.78541486284546
C        -5.16045603124659    8.68071159418871    0.36592188888380
H        -5.14927450483027    9.62417138161609    0.91146453124850
H        -5.87531292955951    8.01875685028614    0.84615139099813
H        -5.47964550125481    8.87681530121584   -0.65550463016557
C        -0.31948611804472    9.96967617933480    1.81887154443959
H        -0.72124545954598   10.82794643561079    1.28444622250975
H        -0.13342701292808   10.26539387386144    2.84872987993562
H        -1.06727200775543    9.17585995783248    1.81618908882512
C        -0.03117162311760    7.03588623423444   -4.07661178260652
H        -0.43901700747481    7.75391140345273   -4.78459148944823
H        -0.75012232183601    6.22249682910841   -3.95265949327676
H         0.88968768700303    6.61491688307212   -4.47857357748160
C        -2.29174128963658    6.55711842693901    1.68609476341335
C        -2.17219200146906    5.71985081545007    2.92010606735019
N        -2.92384100962058    8.36037154954603   -0.54724193053278
C        -2.42487133064931    6.20844629139435    4.19970515857492
C         0.02709063477366    9.56153613247988   -1.19158101724996
H        -0.27076537409136   10.59093514846593   -1.02760730070558
C         0.92738449827320    6.96016040457597   -1.73589555794789
H         1.32319266363146    5.97622585066183   -1.96188996751825
C         0.21502239321696    7.67325016113294   -2.74444556245578
C        -3.65904356986813    9.72410994690419   -3.88691634764663
H        -3.81880092277615    9.36449456299606   -4.89274915877797
C         0.97382188387100    9.47273891232079    1.16823517522816
H         1.40000410911856    8.69695460839707    1.81449195108066
C         1.99516329174798   10.60620437074163    1.03411995466301
H         2.91748396981935   10.23984913673785    0.58760726193048
H         2.22552082902174   11.01757256156808    2.01381795181485
H         1.60451339183700   11.40608720830994    0.40854464344931
C        -3.27736024371342   10.64897755618172   -1.30027816407721
H        -3.12959296167087   10.99900553371745   -0.28827916404771
C        -3.69861123376400   11.08489859076464   -3.62320198273335
H        -3.88280854977929   11.78687854247279   -4.42281386272483
C        -1.64152047348692    3.58394248123780    3.88713991532111
C        -3.78845253439997    8.06012286133559    0.38609916869255
C         1.15247363761423    7.53950962145642   -0.48605127317465
H         1.72304927121642    6.99621886325261    0.26067130553114
C        -1.91820560822823    4.06876340102126    5.15735666085960
H        -1.82459469059123    3.42443480279214    6.01682548682171
C        -3.42158450052909    8.82109995659021   -2.86786984092626
H        -3.38782905762528    7.75551471483398   -3.05326313972181
C        -2.30250809843934    5.38804282397177    5.31058374123290
H        -2.50282702690786    5.78598994675273    6.29297422396741
C        -0.19053673602826    8.98972124954535   -2.47069278143955
H        -0.64225808497364    9.59081320759195   -3.25218205360943
C        -3.50245863024230    7.18951403135886    1.45446868476773
H        -4.29807561461258    7.00553073678813    2.15827798066769
C         0.69442733911932    8.85393687858165   -0.18082094281863

