65
CSD_code = TUXFID | q = 0 | S = 0 | Stoichiometry = C28H32ClNO2Ru | MND = 9
Ru        6.07791402596077    0.81486797491825    4.26563564777589
Cl        8.18366791886211    0.52870463627452    5.25561715821175
O         5.31704534124654    0.44237396801386    6.14919155894675
N         6.18570869543140   -1.18696027713955    3.96710101262509
O         3.11965527600562   -0.60193401179383   11.93800517268758
C         6.13604264554503    1.61267523418323    2.07564789941853
H         6.55519998506408    1.21391446301089    1.15829041654437
C         4.18062497581668    1.87954049260534    3.54229428021172
C         6.56181723197471   -1.46661347724010    2.64449212727232
C         4.79264734388399    1.30780989216946    2.41697358837530
H         4.21860606129147    0.67812921888111    1.74674643607504
C         5.65993307268663   -1.91176074065780    6.18555694813746
H         5.56935362447820   -2.78034890434274    6.81643761749473
C         6.07002779899783   -2.13619366392224    4.86359601385365
C         4.95345961683814    2.78117181090060    4.33121871891374
H         4.48231483669262    3.28087833207360    5.17175351290312
C         6.90601084839506    2.45984564425443    2.88780830352486
C         5.28846586091834   -0.68564720075596    6.73273822915897
C         4.72258229209838   -0.66982947392209    8.10616380057634
C         7.86247277100503   -1.18213521723281    2.22355626545843
H         8.56449359164626   -0.78556855736102    2.94504853306454
C         6.28140897657915    3.07052254040317    4.01544657786321
H         6.83882175659220    3.79064645878951    4.60409259752857
C         8.22477405514091   -1.40316302204094    0.90836472552417
H         9.23238297570320   -1.18294952701061    0.58742264040383
C         3.59962601404320   -0.55942620923927   10.66855531342281
C         5.16627011840353   -1.52859334313126    9.11112386583360
H         5.96805028989149   -2.22242381438052    8.91337862450721
C         5.64277133017792   -1.98652992490373    1.73320940032212
H         4.63822069797792   -2.21128928747273    2.06426054048014
C         8.33499556961140    2.77158579472630    2.56777940380762
H         8.61973531190653    2.35637034225511    1.60371764838937
H         8.97310166665320    2.33222202441938    3.33824556153793
H         8.50292074156734    3.84788059781259    2.56180239124120
C         3.16301041390081    0.31047137182919    9.67406259824128
H         2.38782217444344    1.03515394973767    9.86939513351370
C         2.10557188661185    0.30538283800927   12.32116367830920
H         1.21394404894472    0.16184656773025   11.69444059477939
H         2.45827461528417    1.33905659220412   12.19904002834462
C         1.81199544451949    2.24107573825014    2.83655908420876
H         1.98873534641496    3.31277615018220    2.76993958563345
H         0.77179297862170    2.07873786287569    3.10886828954378
H         1.98300308423888    1.80326470081152    1.85549057046235
C         7.30430699948264   -1.90788528115826    0.00234615324196
H         7.59102772066445   -2.07693862586253   -1.02502772945528
C         3.73007404692900    0.25383761429056    8.41486293687835
H         3.39486055784114    0.93266249259718    7.64486180018415
C         4.61528792613724   -1.47220739713637   10.37109955955741
H         4.95752150947512   -2.12631692265331   11.15763810112072
C         6.35933431426493   -3.55800041354823    4.45554950033672
H         5.55011320356384   -3.94658543858506    3.83878932270784
H         6.46429359177714   -4.19169939597504    5.33043300335296
H         7.27697486280343   -3.59700231350072    3.87136073430492
C         2.73443756868465    1.60722800319399    3.88205101068948
H         2.52268514726864    2.06866338991606    4.85336063917012
C         6.01554183622726   -2.19834134274959    0.41832634317194
H         5.29702809244501   -2.59462301249558   -0.28483470584324
C         1.77038430642541    0.03414877132103   13.77942515669247
H         1.42266271955843   -0.98861971783037   13.89570839375528
H         0.99413870946410    0.71634033997587   14.11427984772136
H         2.65589151112663    0.17007138338886   14.39401838816224
C         2.47675646719357    0.10365008307810    4.00721574771460
H         2.54625961638450   -0.38538271091731    3.03821088089013
H         1.48256902450531   -0.07668934260702    4.40972988800605
H         3.21107695570774   -0.34494870751890    4.67706293252136

