155
CSD_code = TUXGEZ | q = 0 | S = 0 | Stoichiometry = C52H74Br4CdN4O12P4S4 | MND = 6
Cd        1.17055744614435  -10.45272306006784   10.84050481505204
C        -1.22691149276574  -12.18837350317045    9.34934613569395
C        -2.24088008930706  -13.25868212985997    9.36579440567825
C        -1.90612491795543  -14.58540799717285    9.62638970671228
H        -0.87002618426825  -14.84104249848021    9.78522964379065
C        -2.87781780185711  -15.56601237769342    9.66014802177356
H        -2.61635243153897  -16.59320653160336    9.86357006366882
C        -4.19717074505091  -15.21576375849293    9.42610222332056
C        -4.55379346601910  -13.90647539530825    9.14381229383607
H        -5.58547876692472  -13.65556354547223    8.94898717182486
C        -3.57469830879800  -12.93468185250222    9.11215566416124
H        -3.82126865010882  -11.90952439040024    8.88809328627264
C        -1.53512332780984   -7.54919088039952   10.22657077180528
H        -0.56916972095358   -7.79565258892743   10.68429697356755
C        -2.63834493999294   -7.63239024411772   11.27282421309132
H        -2.63133804722130   -8.62038149113582   11.72388246958371
H        -3.60389041071019   -7.46217539308505   10.80208642044136
H        -2.47430305762598   -6.88447699198090   12.04420990495464
C        -1.45999787203667   -6.16048854967469    9.60022549067775
H        -0.69241820891999   -6.13650333159187    8.83020864717912
H        -1.21803192957629   -5.42557889554954   10.36298006822196
H        -2.41593933379401   -5.90390317656947    9.14924867132902
C        -0.43935977861927   -8.39232522502579    6.46758586637288
H         0.14125705874361   -7.79635695158508    7.18529199062975
C         0.46391678231895   -8.81801273817878    5.31949004324582
H         1.35175242543943   -9.30748625361784    5.70864623559488
H         0.76608218364140   -7.94860584548273    4.74158811176029
H        -0.07059961255903   -9.51026796312842    4.67401145016652
C        -1.63882173888165   -7.58782319527545    5.98425661801417
H        -2.29459868073618   -7.36672826654944    6.82142329367619
H        -2.19474702698754   -8.16771175136322    5.25214042568391
H        -1.30640307243230   -6.65808482474166    5.52929607171941
N        -1.63616232638172  -11.03011558448079    8.96588188005748
O         0.57491841295620   -9.37758021352768    9.18947991935576
O        -1.81614187610906   -8.49504781479791    9.19490392415939
O        -0.91126072513034   -9.56915552021894    7.13078255439254
P        -0.82642237874564   -9.64293585299303    8.71597419358561
S         0.36331408598528  -12.59894972949784    9.82169156351320
Br       -5.54416274948377  -16.55516762036020    9.49061889011790
C         3.37513348979219   -8.50521432907229   12.49048259341849
C         4.25284189772981   -7.32396805242926   12.58856270060540
C         5.63583389203778   -7.50263915105743   12.61502758020436
H         6.02620427704615   -8.50725205144110   12.58989086234624
C         6.48407314815064   -6.41476483428159   12.66746817006501
H         7.55469652710313   -6.55099135156535   12.67866383753707
C         5.94419614435558   -5.13900385874497   12.70953258469687
C         4.57322908042859   -4.93870857227427   12.71087060011670
H         4.17181289046061   -3.93821272033814   12.76186991386781
C         3.73275028262049   -6.03306138442262   12.64989370413668
H         2.66132656749196   -5.90300141234539   12.66395781057531
N         3.88587088613117   -9.62133669305314   12.88467421608806
O         1.84861023492800  -11.46157793204882   12.49784773169371
P         3.22400917907344  -11.10964438686481   12.95381061203068
S         1.80084305549364   -8.24565392031869   11.88947283789571
Br        7.10683428725334   -3.63622887630147   12.77712328399769
C         4.44053421830341  -11.41398802775141   15.25838036032487
H         5.29464165587263  -11.39600299773512   14.56985722311628
C         4.40741156012406  -10.11251790826985   16.04787040631824
H         4.36302580361196   -9.26969139612942   15.36318750403178
H         5.30207315333627  -10.02731152760822   16.65900874023209
H         3.53090379182709  -10.09323763476655   16.69022598869352
C         4.52597713240867  -12.62824424412951   16.17531480364293
H         4.52758129182307  -13.54368584475498   15.58901846554714
H         3.66442684958422  -12.64387140821354   16.83755366352221
H         5.43423679087400  -12.58301342642528   16.77005546498482
C         4.28478537601623  -13.36718613479099   12.18227892763573
H         3.53875716809392  -13.69634511365804   12.91867533148675
C         5.65129121388522  -13.95112592832254   12.52416420311751
H         5.96196485239235  -13.64228436447629   13.51894151844108
H         6.38809262423112  -13.59882868836115   11.80689078245381
H         5.61163298463957  -15.03635138989255   12.48796854851376
C         3.83960060997556  -13.77118923338621   10.78422850736727
H         2.84261717956012  -13.38431598891590   10.58602956234198
H         3.82946394806581  -14.85392180445315   10.69293407322765
H         4.52633540414672  -13.35494094452442   10.05112584224269
O         3.24546903211314  -11.54694994232867   14.48733499385581
O         4.39040953447523  -11.94251472348880   12.25634596401361
C         2.94158616548634   -7.29421370374335    7.87576501017480
C         2.29101063465448   -6.00319879349310    8.10669045686027
C         2.18009877921773   -5.46083363357266    9.38912854438828
H         2.60160530144612   -5.97144802875397   10.24098380216445
C         1.54984324517327   -4.24743852780769    9.58253469692082
H         1.47068028602995   -3.82640989959898   10.57276294864788
C         1.01371246820180   -3.57708421180417    8.49491733739657
C         1.12384348960783   -4.08968208369523    7.21145569704702
H         0.70931914437044   -3.55132854106916    6.37332437678119
C         1.76969884302833   -5.29392159238617    7.02257520957824
H         1.87523296766149   -5.70838958941889    6.03188607695155
C         2.72276568358212  -11.81318457824132    7.34182169441867
H         2.57845781882652  -12.26818570001272    8.32951332291693
C         1.53428436219253  -12.13593427482061    6.44996706817485
H         0.63155473975714  -11.67731602403138    6.84787984379889
H         1.39313429786783  -13.21279766784759    6.41288370405695
H         1.70448120811440  -11.75913240440158    5.44468821342620
C         4.03725920821326  -12.28687538103219    6.74333811588869
H         4.85816824513167  -12.04529492471430    7.41309193580002
H         4.20916225268197  -11.78826839391285    5.79232946245406
H         4.00250203426101  -13.36181987860896    6.58632417975228
C         6.55429939548833  -10.33057607029077   10.16447448354540
H         5.79850356441799  -10.84045155487645   10.75690699319862
H         7.31926945471690   -9.93053689811777   10.82493216688361
H         7.01481246492106  -11.03889858841919    9.47936756450343
C         5.90970061134604   -9.20172540196208    9.37489478530381
H         5.36445603795955   -8.54137222879873   10.06286550338888
C         6.92040600771432   -8.39125885180513    8.57549413390788
H         6.40764166449369   -7.64513062535888    7.97390169412331
H         7.47302882488555   -9.04772595803381    7.90879441569462
H         7.61368032875884   -7.89320868754247    9.24745477008858
N         2.96755439530457   -8.16939422099968    8.91336108236974
H         2.36591459428201   -7.98221544467823    9.72005470275711
O         3.16489549189750  -10.48858562409581   10.06423349653192
O         2.76108540843254  -10.37871910643235    7.51223167778652
O         4.97608141984645   -9.75764717522708    8.43702763880474
P         3.43317689589619   -9.77833657831167    8.79081591054410
S         3.66196920800473   -7.65692766297462    6.45395664106061
Br        0.10763269740635   -1.93185724616858    8.77060250240450
C        -0.22348560420024  -13.31154007621673   14.02749930008317
C         0.75422666856034  -14.39066974189298   13.89604355385156
C         1.52872743848369  -14.73953003488888   15.00348207306449
H         1.36177429075864  -14.22563334965324   15.93704809583180
C         2.50535474484007  -15.70920402352293   14.90487925340695
H         3.11581252975409  -15.96430240802256   15.75771150365673
C         2.69367618115601  -16.35296991052833   13.69235123027390
C         1.91056600167564  -16.05375992384945   12.58975949144174
H         2.05451480120677  -16.58262567258759   11.66026136240360
C         0.95081485343788  -15.06580303854324   12.68972508464238
H         0.34712761078807  -14.83632715969214   11.82530784162399
C        -0.38629645569212   -8.97930818728968   14.48281671844994
H        -0.33786370048825   -8.43062089365905   13.53277021384356
C         0.84675502595345   -8.68303439638400   15.32335114809105
H         1.73705177781756   -9.02343631428184   14.80000383193541
H         0.77902698442434   -9.21398038832937   16.26931543647800
H         0.92632097274288   -7.61525710345078   15.50793987141403
C        -1.67349224146295   -8.64075628070832   15.21812445489421
H        -2.53364306620470   -8.84621791033512   14.58774493188328
H        -1.67231564446825   -7.58955638717515   15.49485658986728
H        -1.75011704925238   -9.24967345607769   16.11551690624784
C        -3.59999544601791  -11.45423377921838   12.44115552570499
H        -3.26896479007694  -11.21346231110546   11.42300773162162
C        -4.87004742497575  -10.68525782263514   12.77900065202446
H        -4.70475197906577   -9.61576218529489   12.68103646025309
H        -5.16507158903881  -10.90193749866163   13.80247054835897
H        -5.66868754653530  -10.98143620479199   12.10527499747475
C        -3.79876047823726  -12.95613601124180   12.58906021617359
H        -2.91353565321246  -13.49220422841630   12.25523926861812
H        -4.64860347312765  -13.27977226979522   11.99482662166054
H        -3.97909537179265  -13.19534598949564   13.63449147888452
N        -0.54076780564229  -12.61201955824765   12.90189144431647
H         0.01504159396738  -12.80374413436550   12.06410297641523
O        -0.84207238760742  -10.34245861574997   11.65771954200992
O        -0.34017099091565  -10.38948593370478   14.19686965493087
O        -2.59009803496892  -11.01632606669141   13.36098418811523
P        -1.05826083508033  -11.01781899760440   12.96218255695181
S        -0.95788397902440  -12.97803997213783   15.44616237338371
Br        4.06714368891307  -17.65559387364445   13.52971300032771

