55
CSD_code = TUXGUQ | q = 0 | S = 0 | Stoichiometry = C25H26ClNORu | MND = 9
Ru       -1.78270383619258   14.49057627476977    6.39405377095918
Cl       -2.98656146518154   14.82019540946521    4.40663662335201
O        -3.16455423390611   15.77658316292893    7.22211159012012
N        -3.09764361956180   12.99313216234477    6.67426988199153
H        -2.79929811441618   12.05722215223865    6.40031701298537
C        -0.15969317196295   15.71393395301356    7.39727174252975
H        -0.22787843254865   16.61582478743482    7.99550795939971
C         0.17846866545637   17.14527941330907    5.31728811344633
H         0.37378388664348   16.95721796262044    4.25543737272821
C        -0.05863116276938   13.26621504870950    7.32554363663579
C        -6.66121202784092   18.88523725977364    8.74355580221202
H        -7.23280090566201   19.74399563417253    9.06419525679574
C        -1.14289693126850   17.91032510121426    5.42637084457405
H        -1.95563225174647   17.29136482045290    5.04576678141675
H        -1.09788401540312   18.82645255287065    4.84187466269413
H        -1.35725012599999   18.16720152762402    6.46169634566987
C         0.06376485589154   15.80957521446583    6.01371589925759
C        -4.91794622320326   17.93280472764038    7.40194141163457
H        -4.13085196380897   18.02995899678763    6.66969177438153
C        -6.72201521107090    9.53113075409134    6.77157612016015
H        -7.31373484950941    8.62885606880043    6.72671199014878
C        -5.50471043716998    9.52994162621374    7.43157717051884
H        -5.14713037126975    8.62772952723234    7.90631383732946
C        -5.19904795587531   16.66953233608055    7.91647978308497
C        -5.64969985620769   19.03234938277886    7.80864367711257
H        -5.43174537688687   20.00684270032778    7.39657672234401
C        -6.93588398684326   17.63390533050889    9.27079869714378
H        -7.71776902330503   17.51901315879151   10.00763698356377
C         0.13311399022496   13.34176963446943    5.92371479301357
H         0.32535880848855   12.43868451084928    5.35407837549702
C        -4.38747683016504   15.51589163323643    7.44200595071268
C         1.34370996690787   17.96080436940597    5.88446295752695
H         1.45754187098135   18.88295354533083    5.31984274951865
H         2.27434155321352   17.39971669440921    5.81924775773166
H         1.16893941749599   18.21981252359703    6.92626105040180
C        -4.37802549030842   13.08897605612715    6.92902525519003
C        -6.21115526108464   16.52936060104447    8.86133608085913
H        -6.41776624409730   15.56069625252305    9.29121855238556
C        -4.74304072778212   10.68306266097287    7.48346981764846
H        -3.79887914724061   10.68177003801294    8.01101762402416
C        -5.19889178209822   11.85615275358314    6.88841316120151
C         0.14949981591615   14.59785579581925    5.27994175747407
H         0.33411480987406   14.64010433448840    4.21036471553560
C        -0.21425727622526   14.46033378495126    8.05689730527993
H        -0.29940279692526   14.42377397933319    9.13653848770151
C         0.00141506518026   11.94474141228403    8.03480710383895
H        -0.67627860508000   11.92944054439339    8.88631166943285
H         1.01425585108727   11.77822040366580    8.40598024471587
H        -0.25155846873483   11.12551740454670    7.36484817276997
C        -7.17685762288955   10.69207374006357    6.16811169093337
H        -8.12229065213499   10.69423583977871    5.64605970137026
C        -6.42461625706264   11.85063938759194    6.22952185165453
H        -6.76849366806211   12.75164997963309    5.74538472616156
C        -5.01968742052251   14.28513135611674    7.28723484615395
H        -6.07785475733219   14.23413371711499    7.48414213708139

