68
CSD_code = TUXHOK | q = 1 | S = 0 | Stoichiometry = C28H32CdClN4O2(1+) | MND = 7
Cd       10.03029545579346    2.62804057708380    1.94303083725499
Cl        7.84997063250406    3.17429587531056    1.27631669379003
O         9.74812641206624    3.93722164828003    4.33890882728826
O        10.34173257092708    5.07945431792377    1.86598677114155
N        12.18606772615603    3.08316715915002    2.68657563270803
N         9.09135880232308    1.18781319609270    3.53404852142193
N        10.53097011039430    2.84696740728428   -0.35996961177873
N        11.04400402194357    0.51253150120429    1.25096175248691
C        11.44658847947549    5.78275443648183    1.46894001500617
C        10.06987691953442    3.37506919408308    5.53765800470650
C         9.05704972021669   -0.84867057520824    2.12007911445866
H         9.64112217904109   -1.39216167618244    2.86578196232944
H         8.33222064698936   -1.55512258406619    1.70988222922798
C         9.58125417262784    3.49294684083603   -2.44714655351323
H         9.04189538134549    4.22965215522393   -3.01965704621826
C        10.68185465902255    1.38871109628839   -2.23847655805102
H        11.01688700057456    0.44895722844343   -2.65010272608499
C         9.44739758681639    5.70064527830667    2.77860530644669
H         8.46058240514109    5.27547570010300    2.56949050989103
H         9.43140787331509    6.78758416924126    2.65862949785951
C         8.25470781372175    0.26068747830403    2.80667478438380
H         7.71063763754798    0.83458067919995    2.04945612938218
H         7.52426549895162   -0.21139976702996    3.48038213075451
C         9.97458075749322    1.44751126024624    6.99208217281740
H         9.66902201941268    0.42555497013409    7.16142060526977
C         9.86867717732716    5.34363421705982    4.20407142919991
H        10.91232042304231    5.65634618648207    4.35587829736274
H         9.22110430565883    5.85330163569454    4.92857673459751
C         9.86898930426465    3.71840071144453   -1.11099822490760
H         9.55491812753946    4.62825369932217   -0.61875287597570
C        13.11375299335331    0.78360676801629    2.69773889037548
H        13.72817081527082    0.16040384244424    3.35090725847070
H        13.75496182563453    1.11519608437935    1.87899470581760
C        10.99685987050987    3.45369055301644    7.76897979531817
H        11.49679992933288    4.01618753994826    8.54181097811002
C        12.99056924780700    4.03446748759066    2.43679240302266
H        14.01274260576459    3.99177268103366    2.84234826526408
C         8.97402377050117    1.20505010104038    4.79665786545563
H         8.28214909378381    0.50071620304373    5.28110023844117
C        12.41811348783492    7.68966024787805    0.35648002943483
H        12.29184222603880    8.62895678260651   -0.15870876910639
C        12.67156456603316    2.00509050945581    3.51542808037538
H        11.86593870019573    1.71153417125584    4.19279844617809
H        13.53240730283437    2.34192259976636    4.11275412035579
C        11.97287805503547   -0.10425918782101    2.20302708964748
H        12.41252036779865   -1.01168252219910    1.75632064105803
H        11.39914825405759   -0.40217149212751    3.08139923127400
C        11.30968185677885    7.00514610845704    0.81762718191368
H        10.32037402889425    7.40544179172853    0.65207514756525
C        13.83688997850702    5.96846567163265    1.21827259017639
H        14.82675911716433    5.56771736897357    1.38152889953553
C        12.72979312495367    5.24548218964297    1.68312657676494
C         9.69828858572705    2.03156168054317    5.75227844722755
C        10.70400097574316    4.06988343536268    6.56489292597243
H        10.97761192573049    5.10452011910546    6.43979102386329
C        10.93570113680266    1.70384777535185   -0.90979842756687
C         9.98839413894279    2.29890351093114   -3.02015551459523
H         9.76953793615233    2.07737869201361   -4.05345731397046
C        10.63597736228627    2.13552553626804    7.98774306338476
H        10.84964390793233    1.65788642919862    8.93006385798189
C        13.68813479996190    7.16672590632755    0.55380893069154
H        14.55556233792412    7.69886709298143    0.19743231750707
C        11.73414982999605    0.79647429401542   -0.01204898686623
H        11.97953782383846   -0.13711594290495   -0.54230892449802
H        12.66708662433560    1.32004410744983    0.21041482106226
C         9.93148593165096   -0.40563172192918    0.94745479169225
H        10.33627738897537   -1.31776437007386    0.47578225220959
H         9.29088225474774    0.09749393885889    0.21521270719930

