50
CSD_code = TUXKAZ | q = 1 | S = 0 | Stoichiometry = C20H22BrN2NiO4(1+) | MND = 6
Ni        1.94380615728074    2.96356653244594    5.69863873914394
Br        1.84355846115389    5.30498251199467    6.06228898866429
O        -0.16473507512574    2.46916571792101    6.27005244478655
O         1.27834830874849    3.22304027061985    3.86013090809245
O         1.23455989604987    0.77643427279631    5.03654216513346
H         0.99763044662929    0.10818897347266    5.69067516865211
O         4.97300623889149    4.00618179820908    7.14159643666541
H         4.21334428916540    4.45649251173770    6.73645627986851
N         2.36205921586394    2.66118295899150    7.43294969339167
N         3.90426659931083    2.72838622929651    4.75794922476594
C        -0.94538252569590    1.84315632438186    5.27676466917378
H        -1.56200561209701    2.56333117446607    4.72752834717264
H        -1.59547091692803    1.08436022461375    5.73210586666653
C         0.08289220048457    1.17956709275230    4.32046806514326
H        -0.38686842072366    0.32271728512370    3.82014820680469
C         0.59290076251958    2.14050232326309    3.24190765072258
H         1.28294233727139    1.59072376565184    2.58837459094318
H        -0.24724563003930    2.51313238479391    2.64430372930195
C        -0.69601442976781    3.14536044344805    7.32667264215955
C        -2.02507164253295    3.51985703208015    7.42173865225027
H        -2.71752298542127    3.28034226820591    6.63035011230063
C        -2.46612032831834    4.22443473738677    8.53024122962269
H        -3.49933769459462    4.52818692702470    8.58579869268519
C        -1.59186819378068    4.53391469269446    9.56070831361234
H        -1.94098388188189    5.08395875879889   10.41903781996011
C        -0.27730045674543    4.12361819687762    9.49223438558187
H         0.40279870037537    4.35606898736319   10.29691849242941
C         0.20794309871907    3.43179567310575    8.37570930297927
C         1.57690002922014    2.96415496476483    8.40445659286675
H         1.96369929532235    2.84081635422781    9.41850995149731
C         3.63468045735362    2.04615061706377    7.75125473693979
H         3.56827090880173    0.97925824302997    7.50912623507575
H         3.82399608897340    2.14641310883426    8.82623137061056
C         4.87020616540416    2.62717275340165    7.01324598360727
H         5.75092663255379    2.22318768361241    7.52711786635458
C         4.95963416732012    2.15125326064562    5.54231691861798
H         5.94692666457662    2.43215390509817    5.15222087146590
H         4.86179372363204    1.06193418051757    5.51903639722056
C         4.21550325303264    3.41520609069458    3.72986722261408
H         5.26862737642465    3.51598020327306    3.45029370328210
C         3.30235654733442    4.14813742543934    2.87456525029415
C         3.86181907544240    5.03019955240110    1.94182036659016
H         4.93677000858697    5.09936540428080    1.87196965433981
C         3.07130260076680    5.81863843412937    1.13186820002015
H         3.52756543458890    6.49442022040524    0.42648659371465
C         1.69137548400971    5.74876143389693    1.23733490943586
H         1.06449268242537    6.37436577539833    0.62215130175572
C         1.11145371948726    4.87655428196438    2.14202194406269
H         0.03702969616417    4.83359236624218    2.23699629370163
C         1.90154106976691    4.07843367115958    2.95471681725780

