79
CSD_code = TUXPUY | q = 0 | S = 0 | Stoichiometry = C32H34BF10PPt | MND = 4
Pt        1.55255960831062   -2.25282947289258   14.52477285599885
P        -0.26241637010219   -1.85495575771443   13.16079555723079
B         2.83178325572240   -1.79925642300212   16.47829986613493
F         0.55561791375104   -0.26318747479625   17.31238563726214
F         0.34869725601546    2.41525470009494   17.28409284696327
F         2.46132296184928    3.95088473200766   16.45830572846798
F         4.78411184996495    2.73376508438461   15.68466207353434
F         4.98755272293531    0.05656459766110   15.71010816986715
F         3.27171112632648   -0.94094481227144   19.20760959295655
F         2.24094263114389   -2.11415463991957   21.40822818370782
F         0.62104699749289   -4.30059274033225   21.16923703779327
F         0.04994967071341   -5.29070194763276   18.68062502145432
F         1.08379483178863   -4.11870180075234   16.48771722972887
C         3.44874431218712   -2.65587326922530   15.39813158770744
H         3.66113136952938   -3.70877535580840   15.56371393460889
C         3.61525743675489   -2.15470105697113   14.07984705876370
H         3.80469724757634   -1.08819770844440   13.94930207680994
C         2.76082012791347   -0.21395881651762   16.45992404379485
C         1.61173866831231    0.45412368774355   16.88801059531637
C         1.49019251655995    1.83623184990326   16.88923441683756
C         2.56085671922170    2.61874581426140   16.47119075134542
C         3.73786595070162    1.99495572528689   16.07245796785273
C         3.82114672395464    0.60793013434211   16.07668960385732
C         2.23145408237300   -2.49856772123396   17.77232517066787
C         2.48350933008248   -2.01704716137593   19.05516400055924
C         1.96086076169145   -2.60865907445870   20.19812258716939
C         1.13624579182933   -3.72313880926221   20.08081591418293
C         0.85174306453669   -4.22705305470578   18.81662954020685
C         1.40393423566655   -3.61595251943379   17.69999142194590
C         4.03155382496102   -2.96060870495036   12.93379880403286
C         3.92416342071049   -4.35525833572665   12.90824915053339
H         3.53436252018067   -4.88330750833316   13.76586321931010
C         4.30319755654026   -5.07181541065513   11.79048633455453
H         4.21188491441384   -6.14796842653421   11.78821790692134
C         4.79791172835951   -4.41821614026683   10.67324761404923
H         5.09413572059202   -4.98205925458712    9.80148238773680
C         4.91075701374971   -3.03719289879970   10.68107331467017
H         5.29695049684940   -2.52186788451782    9.81405124010604
C         4.53002032145157   -2.31694881733766   11.79594048075580
H         4.62524760509709   -1.24046812326933   11.79813618511234
C         0.15442983054846   -0.63502976614421   11.74826691417708
C         1.01323720762730    0.48396545996049   12.35636529554872
H         0.41966754802339    1.26167643494661   12.82247545397997
H         1.61004187686565    0.95423898869737   11.57690249786141
H         1.69626468155283    0.06696673758130   13.10090476590929
C        -1.03471296361570   -0.03962820515110   10.99928817355910
H        -1.63603505241579    0.60173663825817   11.63694363508368
H        -1.67415575517836   -0.81145526010291   10.58153633386834
H        -0.66516850704569    0.57138931289042   10.17591811170802
C         1.05993841265950   -1.37057747471061   10.75618502980084
H         1.50620020248543   -0.65313990419502   10.06851403403981
H         0.50875143535951   -2.08818594631962   10.15715661304428
H         1.86712991620207   -1.87673025772051   11.28442652065649
C        -0.82788346571983   -3.52644101962415   12.42315390777953
C         0.44376427771754   -4.28082522114948   12.01060865373313
H         0.87872301288933   -3.91991473594938   11.08650875967450
H         0.21487504444959   -5.33653730904040   11.87377557862947
H         1.19307124646165   -4.19747884936476   12.80411448284555
C        -1.81618613466194   -3.46736828651111   11.26233262955780
H        -1.36831493722598   -3.03545019053016   10.37182242530720
H        -2.70422172540350   -2.89673645123096   11.51854502619606
H        -2.13018499760502   -4.48046263915327   11.01138425908045
C        -1.43000901364796   -4.34915190688534   13.56656215808194
H        -1.53942197221676   -5.38553573614329   13.24916196053972
H        -2.41440777128273   -3.99639117891553   13.85577124030356
H        -0.76418268309362   -4.33549209786183   14.42988025150488
C        -1.66644882558860   -1.13150129800206   14.24069720707967
C        -1.58958470180965   -1.87550025982335   15.58316543182682
H        -2.12030473271554   -2.82061389718953   15.57466765752723
H        -2.01794046410306   -1.26447074045654   16.37544547973141
H        -0.53956567232343   -2.06260159925432   15.84485703447668
C        -3.08147063256158   -1.19016637948778   13.67302649945589
H        -3.43762780522180   -2.21087292995187   13.56820948824337
H        -3.14662596046712   -0.69889295724315   12.70629110937505
H        -3.75714220017581   -0.67600083310466   14.35627316646601
C        -1.30741926763231    0.32602344154291   14.54340722349842
H        -1.91552038130555    0.69011863771413   15.37029244473875
H        -1.49090712954273    0.97799006016761   13.69532443607473
H        -0.26230985799750    0.39965241549024   14.83910099852496

