71
CSD_code = TUXQOT | q = 1 | S = 0 | Stoichiometry = C31H34O3PRuS(1+) | MND = 10
Ru        2.73857235043760    1.29993668967083   25.10166295761527
S        -0.46396929136412    1.13332466506735   26.27804511250192
P         2.12836561796595    3.18423937758672   26.44458253370372
O         0.64457808208446    1.52375576173251   25.31320230113467
O        -0.46863291963014   -0.28132879065116   26.52613230429711
O        -1.67056445162268    1.73430127067925   25.79553441466647
C         4.26923499572301    0.71641663468183   26.54115695278852
H         4.97078009255630    0.02846688997140   26.07529285833513
H         4.75362575728438    1.43042686137425   27.20050533947414
C         3.01456276436025    0.17684313106785   26.93587314263183
H         2.49863780682920    0.50129164707953   27.84032585189032
C         2.41701894266440   -0.70157833409095   26.03339248629428
H         3.04612064941178   -1.36277198836065   25.44678849199537
H         1.40959039864852   -1.05370336821509   26.22634580849552
C         2.12768807789863    1.51619956646478   22.88636394098558
C         2.74069412180697    0.24407522068189   23.07694384464306
C         4.08409291855500    0.45774505759868   23.52142370300467
C         4.28719855485608    1.88418209578849   23.65663240940560
C         3.07080040513219    2.53541497688301   23.24518999435397
C         0.78236002764233    1.71832521208999   22.28708083090699
H         0.66411356391180    1.06842606701950   21.42016330854659
H         0.63375021251585    2.75167751659537   21.98425058815656
H         0.00360976723711    1.44861710087212   23.00583390500954
C         2.12584518446946   -1.04905150267969   22.65957148314901
H         2.71433120613609   -1.90204572035468   22.98557692212968
H         2.06059520127611   -1.08041188328536   21.57024944006234
H         1.11620730269960   -1.14383018621401   23.05631087051710
C         5.16512048562539   -0.57458188874472   23.49554028742505
H         4.83978772485415   -1.52771254842898   23.90810470988418
H         6.05530426858651   -0.24651691587923   24.02620705022099
H         5.44492186945464   -0.74785814894357   22.45449148764154
C         5.60529884882707    2.56665694993154   23.84473843829119
H         5.49558979093098    3.48701928908200   24.41490297382156
H         6.02462967541977    2.81504333251432   22.86836954562477
H         6.31245270163580    1.92751200071546   24.36688676459783
C         2.94917385509755    3.97882148815295   22.87801560144096
H         3.73261580439088    4.57042592937584   23.34278020497021
H         1.98158046426708    4.39251598923539   23.15422716426867
H         3.05856405739081    4.06719447987917   21.79512445102185
C         1.03912281677699    2.85738720752905   27.87798065343280
C        -0.02446011202750    1.97014226645778   27.79332233669027
C        -0.88588222852334    1.76988834742348   28.85264803234542
H        -1.69020882869225    1.06308977274627   28.72499848472478
C        -0.71082343527431    2.47996318629885   30.02896981930582
H        -1.37790513704082    2.32727948454200   30.86247786901085
C         0.31318547380984    3.41158449302355   30.11293289414748
H         0.43817670380602    3.99749181169341   31.01067614200073
C         1.17786411080376    3.60586690717913   29.05033867174764
H         1.95843683439373    4.34740522857441   29.13185681591208
C         3.62859955011558    3.93817049689412   27.15300221701649
C         4.18968399894239    3.46920190616801   28.34031302790063
H         3.67778500525293    2.71085329711310   28.91751831637188
C         5.38861382763064    3.98687845761814   28.79838864778735
H         5.80522726032842    3.62920433879315   29.72760557887954
C         6.05329670896910    4.95906511595248   28.06829019505497
H         6.98652587636988    5.36210962642234   28.42886160812222
C         5.51671293510156    5.41157230096933   26.87349248513187
H         6.03291432119840    6.16681952755089   26.30037371698780
C         4.31665152611880    4.89895968591922   26.41500164037189
H         3.88763055299547    5.26489780585552   25.49267528793277
C         1.17392930732736    4.58788061337983   25.77325617483413
C         0.17672811276106    4.39844324573277   24.82002678391034
H        -0.00630584772001    3.41357128931732   24.42277785348049
C        -0.60948937048003    5.46396107604077   24.41616285763798
H        -1.38410066624247    5.30403976645935   23.68207890491517
C        -0.41486435535050    6.72192640176589   24.96143517882717
H        -1.02931597293904    7.55085565276912   24.64628442495510
C         0.56061881612278    6.90953257059420   25.92763993895036
H         0.70522196241124    7.88313798250639   26.37048898927092
C         1.34805629462790    5.85056608929358   26.34048336327537
H         2.09412707245905    6.01109012145996   27.10462061316272

