101
CSD_code = TUXQOU | q = 0 | S = 0 | Stoichiometry = C43H52N2NiO2Si | MND = 5
Ni        6.89531083839469    4.12126094034127    8.20421101197710
Si       10.10058275866468    3.66748411706538   11.04813886636167
O         8.23355728410977    4.32724235537597    6.97781995158015
O         5.82047916607413    3.97064770899735    9.67295276521944
N         4.24835865780815    3.61702730883098    6.70997485347118
N         5.18740347866787    5.43178926738740    6.07841138435579
C         3.92871819835375    2.43130297238089    7.42715775966674
C         5.35168273906281    4.37336524337325    6.89857063648150
C         6.99847538944816    3.78453769662216   10.10231573548972
C         6.07400801373662    6.53586964118865    5.93997672784437
C         2.97911096451386    2.50181751527411    8.44960664332949
C         7.58942832565681    7.79882544517779    4.59229023935579
C         8.87275329930477    2.24742448446391   10.74020069542248
C         4.01189100377645    5.33332756150624    5.38018628982422
C         5.61105446304282    1.18049699739227    6.00841530639350
C         6.15226835316436    7.48619603168054    6.96618989855502
C         9.36228664813877    5.40774702867951    8.80384599786978
C         9.96697535798206    4.05577788016939   12.91741212625444
C         7.53978903003936    2.43639909806172   10.34677125597059
C         6.92450789307938    8.61746800788530    6.74374169639678
C         3.27817517720331    0.13721588443308    8.81032442474506
C         4.55323121295055    1.22995677285546    7.08355566129306
C         9.30746574626396    0.93914386525123   10.92779970360134
C         9.30933586497259    6.64266108619329    8.15686954802168
C         5.40720476558409    7.27881997577169    8.26557477513190
C         6.80381994766004    6.66483529909941    4.75758981014395
C         8.46735579530333   -0.14592913129034   10.74710954932983
C         3.41600523072641    4.18792584693699    5.78340514104811
C         9.92678322072519    5.29913736714065   10.08356578679316
C        10.40350310619367    6.46477951162277   10.67559807686423
C         4.21618699760222    0.08770736613836    7.79723678243742
C         7.63013305875001    8.77725850342263    5.56506277116676
C         2.66597981368622    1.33312291631132    9.13127228778048
C         9.79890748652769    7.77977695772050    8.76573989000819
C         7.14991035946807    0.05693805462739   10.36895892539343
C         2.30878069998126    3.79972061003818    8.83328070137575
C        11.86571067065897    3.03789217563995   10.66504307278689
C        10.34417243149973    7.69106641411251   10.03625116216702
C         6.69132055877503    1.34205165110667   10.16816507658759
C         6.80357956294045    5.58389054451122    3.70276842522737
C         6.98270762549446    1.17416821358917    6.68598128873798
C         6.44347771714096    6.13568523213370    2.32202514905928
C         2.63261975420678    4.15521076880085   10.28519113858637
C         0.79706981492320    3.71611345228602    8.60655477154664
C         8.17247158000231    4.89906611233985    3.69170810479095
C         5.44988385441177   -0.02043077092249    5.07564495243419
C         3.94094852975334    7.69352026526154    8.10593274670635
C         6.03279182076415    8.01492740351482    9.44885568697623
C         8.82648668128951    4.23212816913964    8.09456060895144
H         7.49120239168461    4.59684026567197   10.66958695362916
H         8.17383580045843    7.91823304591322    3.69328015865111
H         3.70511439906837    6.07561410743206    4.67190891648608
H         5.54362319158441    2.08802120915265    5.40073812625230
H        10.83999730689679    4.59352920458695   13.27266720994908
H         9.89603407029393    3.13676036433457   13.49149881226163
H         9.09083748946401    4.65433475398175   13.14891705214541
H         6.98732575745580    9.38039861570297    7.50206604888360
H         3.02741705800483   -0.75980167436258    9.35750562056124
H        10.33100155968286    0.76279622859246   11.22386439265693
H         8.88551806132807    6.68261393808809    7.16415483894546
H         5.44837409774890    6.20572558102952    8.50646611909781
H         8.84029601448492   -1.14819921244216   10.90433821741198
H         2.49025719804897    3.73540073258515    5.49331777883655
H        10.83587602471958    6.41291679208071   11.66396056719027
H         4.69548956201846   -0.84948984996642    7.56312075827834
H         8.22961127961550    9.66309581849471    5.41322458876765
H         1.94052299870074    1.35943873853240    9.92955279963827
H         9.75721015886610    8.72914627431899    8.25137134036842
H         6.48292135699478   -0.78251798750332   10.23309401753084
H         2.70082795965491    4.60690057305167    8.20982136213948
H        12.19514074754160    2.31414324051187   11.40334617882413
H        12.57303005416817    3.86159440896511   10.67972303725559
H        11.92952672874346    2.56927131806616    9.68749975683044
H        10.72744172227814    8.57437285384296   10.52728922103987
H         5.66746178819070    1.52664098549844    9.87537649588318
H         6.06209173711683    4.82413568735653    3.96368158358621
H         7.10983574654876    0.28488018046264    7.29936587152433
H         7.06607330347865    2.05740803656257    7.33773171341448
H         7.77649248425608    1.21518739425864    5.94441986908023
H         7.20134782990208    6.82736549756287    1.96413508128387
H         5.48979989423859    6.65948533149444    2.35337889235889
H         6.36497973465342    5.32034742982420    1.60616799414321
H         3.71110089940585    4.20051210797280   10.41211269323441
H         2.22944097449183    3.41590142852159   10.97239875751319
H         2.20620949049657    5.12450797101842   10.53490806934266
H         0.34852410596705    2.96050066122749    9.24641112053854
H         0.57559972039749    3.46124877162371    7.57178760568651
H         0.33297302377835    4.67377738729407    8.83186729268345
H         8.39367202681473    4.51616503228849    4.68515647375426
H         8.95394476723595    5.59892676006047    3.40580767822400
H         8.17279572907509    4.07186655119538    2.98512308251141
H         4.43533441126687   -0.07098982259542    4.68547438347193
H         5.67092039728387   -0.95327227393674    5.58719220241237
H         6.13772271055891    0.07222564948881    4.23825379125301
H         3.87532059947559    8.75524220979321    7.87262435764402
H         3.39961942621551    7.50804023221221    9.03062259929053
H         3.45468959760055    7.13827944869647    7.30694398801296
H         5.56792038920923    7.67020786151594   10.37006974794134
H         5.88132336779160    9.09048602630207    9.37992282582673
H         7.09895964336983    7.80762427478877    9.50634800517089
H         9.32145226320567    3.27469201918805    8.35528808905299

