142
CSD_code = TUXTAJ | q = 0 | S = 0 | Stoichiometry = C75H62N2NiO2 | MND = 7
C         7.97918760008846   13.15723156284875    6.37348679455156
C         7.53633895645944   11.04626388988682    7.03596999017359
H         7.66304327831411    9.98628822632268    7.09131758881168
C         6.58108496255333   11.84496222309728    7.55795492397510
H         5.71738962973667   11.61834064049159    8.14810616478873
C         9.59330482470712   11.44097254913964    5.71522370716687
C         9.68889322484594   11.41043665845523    4.31619412407461
C        10.87791677762625   11.01467164949676    3.73715219847780
H        10.99511657813201   10.99519313209134    2.66571951854877
C        11.96792257640132   10.64203790201020    4.52261899724059
C        11.86538803345158   10.68811512117787    5.90516018861468
H        12.70318455695604   10.42517622424403    6.53029145093630
C        10.68568824376979   11.10445900541143    6.51020597069275
C         8.49395469889221   11.86073363820814    3.51154417076677
H         8.27753083763342   12.92581285195408    3.86497094067893
C         8.70455524725972   11.91479452865037    2.02051057860470
C         8.65491976258516   13.12989056452194    1.35439387522186
H         8.47595595040924   14.03563923174314    1.92044559487941
C         8.82344690165855   13.19363852181170   -0.01695743266560
H         8.78469899750613   14.14813036538155   -0.52213538653863
C         9.03653586365505   12.03420007174050   -0.74154628426693
H         9.17007549624643   12.07940200004915   -1.81249489210386
C         9.06752748312224   10.81319035418426   -0.08829359671274
H         9.22256919474832    9.90385696193849   -0.65080927312685
C         8.89692831725772   10.75193992308976    1.28239431501278
H         8.90897753572495    9.79572507733957    1.78524785630998
C         7.28007882145409   11.00005346981881    3.77906605660676
C         6.00915248532069   11.50882236699701    3.54269331768920
H         5.90299451768041   12.52101656943534    3.17749470207712
C         4.88720907731146   10.73029279515449    3.75884251483286
H         3.90463715000084   11.14097397400204    3.58297491445222
C         5.02123649780401    9.42712557209444    4.20627716324916
H         4.14418908436151    8.82151363294702    4.38022854821687
C         6.28387361404824    8.90305669151723    4.41934159570640
H         6.39730765475252    7.88199638819018    4.75501532316108
C         7.40596627691607    9.68268395104686    4.20326064952570
H         8.38895018619910    9.26505913636692    4.37215977320236
C        14.23008592785534    9.90600678588890    4.57409049629744
H        14.58599048997787   10.73779478367869    5.19088313360101
H        14.98798029325761    9.65692765047979    3.83307264162020
H        14.04947721588914    9.03467599221278    5.21247473807398
C        10.58723890938767   11.22409571093466    8.01892436429961
H        10.02430169288428   12.14283460936316    8.22914196765839
C         9.84861468351703   10.06133585689350    8.64096017704722
C         9.86304150691298    8.79626912613689    8.06539926287099
H        10.39160587526822    8.63885903386268    7.13552812974110
C         9.19637511848251    7.74297716124878    8.66679156279535
H         9.21333977870164    6.76535817146675    8.20677983048304
C         8.51031834632122    7.93858343854783    9.85331070517813
H         7.98923057496349    7.11596141824735   10.32023680751412
C         8.49888317887520    9.19322920419341   10.43869838727720
H         7.97026611430567    9.35610074596204   11.36662317491170
C         9.16610928060518   10.24422071018234    9.83708336303023
H         9.15492585661591   11.21907252629312   10.30358657299774
C        11.95153462964583   11.38675575904252    8.65622432118189
C        12.67632711064861   10.30262416498752    9.13574615907304
H        12.25804352210547    9.30769969092296    9.08046956582156
C        13.93197273878852   10.48671573130197    9.68849210020846
H        14.48390678938879    9.63445748072068   10.05814750814816
C        14.48097577348776   11.75499781081749    9.76749836151217
H        15.46133895215123   11.89608861256901   10.19843423289455
C        13.76438302982752   12.84034226503340    9.29267925111638
H        14.18343258796379   13.83461768861662    9.34973129371423
C        12.50873239107928   12.65590559463162    8.74336947585144
H        11.95024198050894   13.50351905082532    8.37764127140578
C         6.18390834073952   14.26276610077861    7.64960736120621
C         6.49814285655548   14.74933356503735    8.91892599447294
C         5.76953053444272   15.81247145847188    9.43762461196237
H         5.99700113051791   16.15412162941922   10.43416871248268
C         4.76638167583175   16.41465152855206    8.69079312978274
C         4.48367701553137   15.93435305324175    7.41460961063255
H         3.70122991478643   16.41427172185223    6.85053049141057
C         5.17073452034292   14.85508783045173    6.89148665783941
C         7.60733775183152   14.13357741154434    9.74460417742239
H         7.94113723082384   13.21817644176766    9.24501693168529
C         7.06512708218867   13.73186761178049   11.10284624397254
C         6.46245401666624   12.49033079387147   11.26206868148179
H         6.41606244351728   11.80744301684011   10.42549114067061
C         5.93335271022402   12.11320433120772   12.48311485732590
H         5.46933791060854   11.14330807859103   12.59045468252981
C         5.99916017653911   12.97438321481966   13.56478359886230
H         5.58595942019640   12.68183467183802   14.51871377710940
C         6.60550800392846   14.20988855028559   13.41806431453055
H         6.66941706117539   14.88427311277475   14.25978831480615
C         7.13632567924969   14.58550735165351   12.19662083764135
H         7.62655686703951   15.54399621126986   12.09936660688298
C         8.82730198974593   15.01834689253582    9.90531698825137
C         9.96659187430497   14.44850326394304   10.46556593120692
H         9.96252541584692   13.40281205046469   10.74118882159923
C        11.10423600090125   15.20119052801362   10.68604235376323
H        11.97737867365162   14.73617988562592   11.12016770180757
C        11.12158789309783   16.54406991145237   10.34743874061196
H        12.00769330970181   17.13759559115113   10.51852193192855
C         9.99651977561356   17.11837599292590    9.78389840981160
H        10.00437847170455   18.16456880881713    9.51251483333596
C         8.85751255329631   16.36137659455375    9.56172521715438
H         7.99216489799778   16.82193083083274    9.10976468365681
C         4.24343024712550   17.98804605214443   10.39720245779016
H         4.07226712360382   17.23928078615135   11.17777066793163
H         3.53049057247760   18.80218015542341   10.51732589250819
H         5.26049812140834   18.38297454214705   10.48999850500421
C         4.80772260987959   14.31075711713384    5.52884576195559
H         5.52715160398431   13.51902000392823    5.28099929045769
C         4.97132783939371   15.40358358004958    4.49523422654996
C         6.20354655345737   15.58344659874062    3.88025183993032
H         7.06658079451828   14.93062035026020    4.18598934643808
C         6.37576666248061   16.56779678594549    2.92303881182843
H         7.33200288918242   16.69306566907968    2.43652050320134
C         5.32154829133961   17.39693726001714    2.57998949125587
H         5.45574686773392   18.16320708718358    1.83048996309821
C         4.09699393995976   17.24051648997519    3.20488129570815
H         3.27145787249664   17.88899202062067    2.94934696400497
C         3.92253787143855   16.24937284024413    4.15413944878361
H         2.95599016708856   16.12239318119500    4.62023395750798
C         3.43652469863094   13.67121810080614    5.50734482143517
C         2.79800468740840   13.27146738386644    6.67348150028879
H         3.26563041992694   13.44906375657420    7.63115125406241
C         1.56107461271031   12.65170716388507    6.62485056658966
H         1.07769563425302   12.35107068639025    7.54331462414098
C         0.94398332964105   12.41770778386828    5.40921209089083
H        -0.02304932798455   11.93817574803381    5.37211558405981
C         1.57833290919717   12.80020989919392    4.23944478066113
H         1.10875761954805   12.61638337178475    3.28362210811270
C         2.81564265193551   13.41546789909862    4.28881479119866
H         3.30388277587312   13.70825617364025    3.37010654363173
C        10.73113388329783   14.59538640597374    4.31241716035479
H        11.16308285568488   13.95284567388540    3.55282546923205
C        11.21761337793540   14.53074155327014    5.61718940781603
H        11.96218072093216   13.78630011302115    5.86599299663055
C        10.78240190708257   15.43504163801004    6.57366381346875
H        11.18225804497610   15.41787533619706    7.57744998683905
C         9.80651351779176   16.36626799968326    6.24567581035444
H         9.45296441740019   17.05991455892422    6.99418863795017
C         9.31959462627898   16.45526660990555    4.94577575607385
H         8.65460670817082   17.27184991457685    4.68395404854499
C         9.81800077925269   15.59998883185345    3.94244857005499
H         9.65145440799050   15.82703361889319    2.89174913936088
N         8.38528683413745   11.86055938232304    6.33249927134151
N         6.87485229528993   13.12675448685131    7.15806569573862
O        13.08277818968888   10.25833534581840    3.84109393513569
O         4.00724759529655   17.46208117875378    9.11409669714281
Ni        8.49675135647570   14.36201663040785    4.80082466793436

