71
CSD_code = TUXYAO | q = 0 | S = 0 | Stoichiometry = C30H32ClF3N2O2Ru | MND = 9
Ru       -4.37382220259085   12.40482568848180   13.33638940581325
Cl       -5.15378161385837   13.59062337697106   11.46912014327020
C        -3.63914324916241   10.62631994660963   14.46370889027939
C        -4.70521171342393   11.22139095032764   15.18106089192035
H        -4.55914589268685   11.47953305289446   16.22641755388825
C        -6.02465762303215   11.25127811416548   14.64438057543341
H        -6.84517924206031   11.53338192008920   15.29207195753913
C        -6.26301829064405   10.88866987806219   13.32494973290287
C        -5.15183232343259   10.43477133158902   12.54513414674920
H        -5.33213507369317   10.10040026098410   11.52731393742309
C        -3.89605364779568   10.21422603985278   13.12859046103004
H        -3.12873590633783    9.68076792940269   12.57793356150010
C        -2.32181763320578   10.32689368405581   15.11744097311847
H        -2.16025559645080   10.97139000274065   15.97906352932111
H        -1.49971039142245   10.46796608131575   14.41805349298012
H        -2.30587284088278    9.28889818771055   15.45509080041826
C        -7.65000188274656   10.88673581974102   12.72652850869173
H        -7.55390785394747   10.66342726897732   11.65812835835269
C        -8.33202215946949   12.25002067473553   12.85563245039406
H        -8.57851944813009   12.47671871088910   13.89077975017993
H        -9.25500557677232   12.25601137020848   12.28064868087525
H        -7.67847413882683   13.02868148400438   12.46406109716674
C        -8.49035408481111    9.78260193100159   13.37766526303460
H        -8.01088209979396    8.81244293797220   13.25985868323646
H        -9.47219557887690    9.74046524420279   12.91238496192497
H        -8.62182381131216    9.97353272412699   14.44098682557873
N        -4.33940068437944   14.24862258025496   14.18704637539953
C        -3.27761475245392   15.02650808628668   13.96251926481232
N        -3.50501447505763   16.30582891841556   14.37961928166321
C        -4.77349440304826   16.34134646356168   14.89661270346012
C        -5.52384085728218   17.36692060868301   15.46117706279352
H        -5.12468898694418   18.36167000073807   15.58228827790974
C        -6.80772161993404   17.06864185234491   15.85746993686876
H        -7.43838686213364   17.82616874330596   16.29636540160386
C        -7.34913136739020   15.78203879335240   15.69766143485769
C        -6.60026135570383   14.75197967862737   15.14898745632389
H        -7.02044218697151   13.77200896037355   15.01276634410246
C        -5.30227578462867   15.03599314852425   14.75535615791819
C        -2.62236856199140   17.44083874353221   14.30049542526089
H        -3.23957427690903   18.34101753078479   14.24256194181685
H        -2.04354880301737   17.37247700079445   13.37705693645310
C        -1.69911995682749   17.52138616028526   15.51979656105691
H        -1.14815050121544   16.58317263295807   15.61832871168506
H        -2.30727818832736   17.64211434250284   16.41920314844678
C        -0.71681070560626   18.68446591166770   15.40523711417916
H        -0.11632645610099   18.56420810375910   14.50076552755812
H        -1.27251989717223   19.61988347524694   15.31054680479935
C         0.20337648407086   18.76044372289845   16.61722848876464
H        -0.37460748986995   18.90022956786629   17.52786629813451
H         0.89464064303998   19.59339831427168   16.51860828752575
H         0.78137956905467   17.84430530949216   16.71573903266918
C        -8.75056280194222   15.56699594661979   16.12157992927244
O        -9.45526295212873   16.41282198012941   16.61549937255453
C       -10.52011552135722   14.04222348824124   16.25122808328533
H       -10.67887205841000   14.22735609786099   17.31605582375807
H       -10.69934330444511   12.99614480053906   16.01324068949846
H       -11.19373303124537   14.68455718640958   15.68013751869401
O        -9.17112279487169   14.30811628799082   15.89874028232925
C        -2.17559796481044   14.38882778360019   13.28942096612811
C        -0.89340103341472   14.89396322394827   13.07071065672577
H        -0.59878043762113   15.86100846653724   13.44337123434041
C         0.03599545535981   14.14019297536764   12.38474677457858
H         1.03363285847276   14.51537548161471   12.21937935103622
C        -0.33164955556053   12.89169862708632   11.89527778205149
C        -1.60536184568867   12.38227293461590   12.10909771601115
H        -1.85082342304601   11.42092576303824   11.68011702498570
C        -2.54735418787205   13.09445345016918   12.83986258448934
C         0.65180017696159   12.03423509921821   11.15610848879071
F         1.83580946566173   12.62581329505223   10.94355371828966
F         0.20346150627091   11.63813207990092    9.95256429881266
F         0.92322280182936   10.89334177043868   11.83360909526333

