50
CSD_code = TUXZAO | q = 0 | S = 0 | Stoichiometry = C22H21Cl3N3Rh | MND = 6
Rh        7.10828911164641   10.16954587908967    2.89268557290663
Cl        6.90396566033588    9.81181726885405    5.18606281096406
Cl        8.53131639876027    8.39665751815725    2.66922931505394
Cl        7.27696147525072   10.65341945888396    0.61895126951577
N         5.53422894560298    9.00924324423497    2.54465932915970
N         5.78516787445835   11.50845582551378    2.99571315934072
N         8.32614776303971   11.79048302343393    3.32149856837093
C         5.50578058204450    7.69918128028108    2.33778159939575
H         6.46430683524449    7.19241500958941    2.35045135663161
C         4.32682886736072    7.00746179671759    2.11514431005052
H         4.35696858012271    5.94256923939683    1.95169008410252
C         3.12823063055222    7.70348228527108    2.10799206397371
H         2.19140814507936    7.19510053565230    1.93866568343720
C         3.15434288004606    9.06946331940362    2.32396965708197
H         2.24089375859601    9.64189128503283    2.32705046773710
C         4.37156553931172    9.70751003276368    2.54118978981069
C         4.51408089388637   11.14225904413017    2.78060301264985
C         3.50708146381639   12.10088293974980    2.79536363461768
H         2.47962928052134   11.82495331729223    2.62551084738710
C         3.85146359567041   13.42435798272068    3.02711979371515
H         3.08631673970152   14.18491562238178    3.03943850909079
C         5.17624763337052   13.77329234235563    3.23916013905728
H         5.44490187970225   14.80211544312426    3.41166748788470
C         6.14595503598552   12.77441253402983    3.21947640438820
C         7.58287778190652   12.92673806414510    3.43116223434069
C         8.16095263213492   14.14591912440939    3.75230809422295
H         7.54880278019190   15.02890774562926    3.82979996746978
C         9.52361722780731   14.21681546049198    3.98541897398072
H         9.98978981019427   15.15518677023604    4.24617633438527
C        10.27438825370357   13.06301962353884    3.88598134751670
C        11.74220343571866   13.00009761300059    4.12057072347308
H        12.17268255299973   13.96994206878131    4.36746346165125
C        12.33916403102331   12.18109512435664    2.95895108540233
H        13.41225261994131   12.30845415694830    2.85475839583384
H        11.86458015643903   12.30855771972504    1.98781999440861
C        11.93583843553195   10.93526954522194    3.76167772745828
H        12.55686623469335   10.04422404761151    3.68639772435088
C        10.47904909790568   10.62350706397396    3.44850153622190
H        10.39144961386885   10.20855688725996    2.43917440161198
H        10.08369166811516    9.86077142234413    4.12582677179331
C         9.63546032759393   11.85356763675129    3.54112896460554
C        12.05183882057541   11.78877781738742    5.04860015525723
C        13.47481382368954   11.83223693244249    5.59531564476403
H        14.20693478526619   12.04617998044069    4.82281364153758
H        13.72403039151604   10.87180784907164    6.04170707306698
H        13.55729380209290   12.59728221744093    6.36512934769725
C        11.10224339897153   11.50694038131519    6.20493541206433
H        10.05909372162647   11.47732532971586    5.90660601737018
H        11.21128845650138   12.27622971581988    6.96784035493023
H        11.34931656988346   10.54620347388051    6.65145974826194

