42
CSD_code = TUYBEV | q = 0 | S = 0 | Stoichiometry = C19H14Cl3N2O3Re | MND = 6
Re        3.85215254041459    0.35119351304972   -3.13286393988219
Cl        2.87377839099880    0.61437601956112   -5.27991889437602
Cl       -1.45538599177308    2.86048344854458    0.75924251319458
Cl        5.82396654950420   -5.80053733974498   -6.21057238952775
O         5.25053756025977    0.38307243970869   -0.37792643449107
O         0.89926164840631    0.14670382717985   -2.26521995107693
O         3.85158896405492   -2.73979950774296   -3.08258725494950
N         3.91492058742054    2.58136355126493   -3.35786952329077
N         5.80768849836105    0.68368893648738   -4.14124841392274
C         2.14764035802778    2.65980373899379   -0.90705954223063
H         3.12463290336901    2.28170558341959   -0.64674608313378
C         1.10359278851069    2.53359950347713   -0.01265109791813
H         1.25452779771357    2.04182459852588    0.93488701660891
C        -0.14690426300866    3.03501604848045   -0.34507106117383
C        -0.35209254239311    3.68739467643469   -1.55332718512107
H        -1.32768201789725    4.07658956520973   -1.79704741180721
C         0.70190989102220    3.83569743003268   -2.43118957285491
H         0.54568186904286    4.33886607577490   -3.37401329002667
C         1.95679120048046    3.30408004700773   -2.13076399624461
C         3.04379449460813    3.46580024096788   -3.08455847386141
H         3.07640752659323    4.43451661344431   -3.59428907636423
C         4.95643386341886    2.92676913297019   -4.30032659075764
H         5.20169151196647    3.99506475564713   -4.26323065828360
H         4.60254671859504    2.67848594014875   -5.31064268692459
C         6.18719903788645    2.07283811391528   -3.99303032014668
H         7.01662982953414    2.34363952794735   -4.65935744209548
H         6.49725031111141    2.24553000869325   -2.95372693700220
C         6.60662311111284   -0.08368495328710   -4.76472195028707
H         7.57496810799332    0.31017177229318   -5.09552534346483
C         6.37849396217154   -1.48353166981726   -5.09335683486848
C         5.18102452775177   -1.91318668948084   -5.66544210102373
H         4.39239184066341   -1.20187534000816   -5.86348991983578
C         5.01232117437276   -3.23787856649066   -6.01938725840068
H         4.08830324990599   -3.56655735927247   -6.46758107577811
C         6.03512408103260   -4.14422353254761   -5.78711803389393
C         7.23802097864296   -3.73117810482773   -5.22882689676762
H         8.02782735258572   -4.44612670864497   -5.06063037515085
C         7.41256562099217   -2.40243561810800   -4.90356658065136
H         8.34724865528516   -2.07612057429585   -4.47119192064624
C         4.71883871564690    0.35611532671986   -1.39964397951825
C         2.01696288337756    0.24379686921462   -2.49114056087514
C         3.88112571223792   -1.59435134085163   -3.13316847116659

