50
CSD_code = TUYBUL | q = 0 | S = 0 | Stoichiometry = C21H20ClN2O5Re | MND = 6
Re        9.62914768434795   -3.54238427757776   -2.08786002007722
Cl        8.64737131252375   -2.91517135097562   -0.01291650252256
O         8.12900058950023   -1.58865079815421   -3.95597422773405
O        11.06194347597731   -4.68225544451979   -4.57629374988265
O        11.40224432041471   -1.12065290021306   -1.38240647937881
O         5.10671805560371   -0.88531515155382   -2.09979540611254
O        14.66023275619940   -2.35506600860941   -2.83171914322867
N         8.19574767292304   -5.25713861445928   -2.13539383256497
N        10.59493718620636   -5.03683877077146   -0.69431346260548
C         5.30188493265813   -4.51005150500987   -4.09374365805752
H         5.33988279359552   -5.44625520247035   -4.63049586921734
C         4.46605130072892   -3.49201806373078   -4.51622383581482
H         3.83776106202335   -3.63886196603384   -5.38180324304313
C         4.42163420094622   -2.29082541539731   -3.83721896940725
H         3.76760720934651   -1.49402101501979   -4.15379326696191
C         5.22455441111310   -2.08379817143985   -2.71201427358968
C         6.07735738875046   -3.09873200636154   -2.29176378620412
H         6.67269945177864   -2.98692972642117   -1.40013881631053
C         6.12832154057833   -4.30385284459252   -2.99044772423705
C         6.99379058768631   -5.37895215186573   -2.53376795226428
H         6.53836509645246   -6.37600119591892   -2.55148843335694
C         8.86141322161979   -6.43791587722171   -1.62782401779518
H         9.58320079355408   -6.78935404675863   -2.37745787891214
H         8.15108415123368   -7.24775092851256   -1.41525835120450
C         9.61009168714547   -6.04042395487588   -0.35502805760885
H         8.89162300816808   -5.59563455957036    0.34757591615489
H        10.06889856810640   -6.91745530273341    0.11841235475269
C        11.64689359340626   -4.97565004405799    0.01777364200860
H        11.75280532702285   -5.64706974767157    0.87681990170744
C        12.75429646312481   -4.05619333789552   -0.18197648345345
C        13.42408564932443   -3.55694186342619    0.93281534359418
H        13.11015057854178   -3.84546162405381    1.92474136815292
C        14.46326354886494   -2.65923141746334    0.76056984413965
H        14.97358550801677   -2.25791753521370    1.62287834434568
C        14.85263073611491   -2.27266958097461   -0.50517511796354
H        15.65901025599832   -1.57242331675444   -0.65288329061628
C        14.20509936238715   -2.78647022919244   -1.63344337405324
C        13.16131400710910   -3.68778906529727   -1.46534964042147
H        12.67288494620331   -4.13704357821869   -2.31489853113027
C         5.96017046174855   -0.60081278027945   -1.01105520872312
H         5.73706752201115    0.42472763234913   -0.72246428220815
H         7.01307940670009   -0.67859050153080   -1.29553576614359
H         5.76792021509490   -1.26561230432144   -0.16421958443353
C        13.96231362911035   -2.73548289609640   -3.99714724883721
H        14.44714891050097   -2.20369524305363   -4.81380806015872
H        12.90736170175547   -2.44575916578678   -3.94480097362940
H        14.03390579730585   -3.81254871922950   -4.17547351900281
C         8.63026573918342   -2.33666475988588   -3.24328643769595
C        10.52199102658534   -4.24163437312615   -3.65617284241753
C        10.83029115480491   -2.05755829806245   -1.70865539584422

