71
CSD_code = TUYCAS | q = 0 | S = 0 | Stoichiometry = C26H30Cl2N6O4P2Pt | MND = 4
Pt       12.06515943260291   13.30519443662382   12.35257350814272
Cl       10.61818967567294   14.38302838272873   13.77634729891543
Cl       12.72924520656862   15.24736937636245   11.31805389061252
P        13.35082714930497   12.05181278024079   10.96517200667397
P        11.62181172101968   11.30124664008872   13.32446365964906
O        14.95913149767948   12.11358810489094   11.05163895010450
O        13.13564924132975   12.25002005859028    9.38241081944448
O        11.82397309248426   11.19806098046381   14.91776382535472
O        10.17539293808394   10.60759268196013   13.16499339176335
N        12.99404298279162   10.40469473584732   11.28339964010650
N        12.69404706109548   10.15096773612150   12.63968226173119
N        15.14378144461568   10.43582932754735    9.50971099436471
N        10.96612987249795   12.60249214703675    9.95508544322113
N        13.52432495173723   12.66327341909768   14.56756154050952
N        10.92149393058765    8.74232072124573   14.25330846668862
C        12.07149550987276    9.71221131380131   10.40223415612405
H        12.09839203443961    8.65223549560434   10.65748609097164
H        12.42116045313425    9.84719434914698    9.38156757354523
H        11.04454579902276   10.07781873161579   10.49670530344530
C        13.88601831580891    9.78429144510776   13.38280294404729
H        14.34729979060723    8.93623343344373   12.87564904028083
H        13.57632583462728    9.48305927798057   14.38048243929553
H        14.61059239386811   10.60168093988410   13.44600461094456
C        15.12665632113685    8.66117387449251    7.89349122446255
H        14.34269125925662    8.20358615065756    8.49093295530895
H        15.79160812045222    7.89404707718033    7.50683666980977
H        14.65183739813603    9.16846102942317    7.05458767460326
C        15.87654012025692    9.65676444252471    8.71934159518019
C        17.25953633711671    9.77545386896655    8.66045519103430
H        17.83440731516002    9.13572475173480    8.00937419522515
C        17.88546577146895   10.72949774083497    9.44917769205171
H        18.95895327232131   10.84394015048717    9.42129860447780
C        17.12167665488845   11.53570382154383   10.27270103345047
H        17.55227596435956   12.29564451565441   10.90260804685701
C        15.74398553682838   11.33934035635290   10.25373496115215
C         8.78191607580677   12.98636156743590   10.85434743448084
H         8.76496789801809   11.96477215372247   11.22868107499507
H         7.78451942244489   13.29714009394116   10.55866679069668
H         9.12507451685347   13.61723365923081   11.67998115560980
C         9.75216181655858   13.11158230996859    9.73406413727119
C         9.45802927494563   13.74995370713578    8.53491281993004
H         8.47561516229856   14.16307668846826    8.37027741152663
C        10.44317555550525   13.86252539592498    7.56697260912725
H        10.23553802699004   14.35915603347376    6.63113092698051
C        11.70801628064464   13.35325940332798    7.81371659621674
H        12.51835602303039   13.44089871341497    7.11027313687603
C        11.90850936492764   12.74288470564383    9.04073287445585
C        15.20055590819755   14.24074345690017   13.91179928988749
H        15.67153650806636   13.47403268023690   13.30009560652765
H        15.95094747811026   14.90490057596500   14.32965957085525
H        14.54422835198727   14.81186457112765   13.24824645508003
C        14.36619697736010   13.61648172206924   14.97300761556786
C        14.40709487917327   14.00712890251045   16.30635361821805
H        15.08740259593052   14.78254024079691   16.62070908546643
C        13.55571003164775   13.40213139231288   17.21691756069758
H        13.56939505900663   13.69485951963174   18.25599352607156
C        12.66704229976505   12.43124352294474   16.78368920012560
H        11.96261647328853   11.95162775906720   17.44163169441932
C        12.69331835942631   12.11526209008425   15.43536354823495
C        11.90147382638567    6.87761387205052   15.40083034592780
H        12.70656313511064    6.81027192517322   14.67252859625637
H        11.65328587219721    5.88335476106835   15.76053519565012
H        12.26056418563444    7.48025986170450   16.23284899845773
C        10.71318114068265    7.53831563179529   14.77891131158568
C         9.46035298583054    6.93945234951535   14.74899212176954
H         9.31114298842612    5.96362201000170   15.18381494487613
C         8.40600678397354    7.61801337512586   14.15487368627573
H         7.42122825396727    7.17615092609713   14.12083881495383
C         8.62598922878854    8.86824286475515   13.60761264027930
H         7.84458586598871    9.44287791212136   13.13973678872916
C         9.91743699224133    9.38030934988903   13.69291511674236

