48
CSD_code = TUYDOI | q = 0 | S = 0 | Stoichiometry = C21H15ClN3O7V | MND = 6
V         2.60304601611388   -2.02531846575935    3.45014324344626
Cl       -1.36310818398526   -1.97694562122490   -2.46572592457995
N         0.85088957535994   -1.07478065599394    3.41127333855415
N         0.42022051094780   -0.62228497686594    4.58241732453253
N         5.10235588446865   -1.30497435867046    4.08496916549351
O         2.63870059599861   -1.76390287079717    1.74860248486721
O         2.43789193299492   -1.36669300364248    5.22860236820121
O         0.23766112802760    0.60487643123694   10.82656894559719
O         3.55397622067355    0.14221044471837    3.40961262362221
O         4.26968363748718   -2.30563945727943    3.79345309416976
O         7.47134910790757   -0.30075388357161    4.79989340209969
H         8.38885545994598   -0.21161495111520    5.09063133522865
O         1.90639078588158   -3.36721263463949    3.61030330128297
C         0.40143464648099   -1.48032641557559    1.08737335343804
C         1.74996014620079   -1.84117019675796    0.81035425187382
C         2.08716372392464   -2.23273532970814   -0.49670154040660
H         3.11185538364185   -2.50739410069285   -0.69976268869302
C         1.13596566288862   -2.27987555026735   -1.49053564915633
H         1.40305228549387   -2.59163502280248   -2.48822659980040
C        -0.18012718342953   -1.92049649995091   -1.20691557854199
C        -0.54768702562996   -1.51889927518840    0.05819336602572
H        -1.57005975130809   -1.24200222303809    0.26575315782369
C         0.04761768583565   -1.04017991385206    2.39997804573246
H        -0.95715102806637   -0.64917202085037    2.56576500501489
C         1.31700728976617   -0.83871968979165    5.52051194559879
C         1.01058273703332   -0.45459522767047    6.90274406451929
C         1.96277633965341   -0.65437726968087    7.90350071634027
H         2.91035102662474   -1.09935570630894    7.63772241041925
C         1.69569429632545   -0.29789634277744    9.20635979984852
H         2.42008817720913   -0.44699563863049    9.99101848390851
C         0.46335248892486    0.26567531916204    9.53438429572844
C        -0.49138005290224    0.46407845996839    8.53908282108121
H        -1.44853154439608    0.89816100814861    8.79719294420468
C        -0.22095607888365    0.10696419040528    7.23507376518846
H        -0.95146770515724    0.25330356483276    6.45651616775662
C         5.59888451537289    1.07243197148666    4.18602326841135
C         6.92343679896670    0.93623762715187    4.62670626639016
C         7.67884547712056    2.07461887872528    4.88434816858173
H         8.70142179793175    1.96109531512845    5.22050198139861
C         7.14327230679948    3.33766701060136    4.71710342576321
H         7.75031324843215    4.20542166325210    4.92459373166407
C         5.83483471128973    3.48208715128913    4.28547779919049
H         5.40964751307359    4.46435862324886    4.15427063236453
C         5.07978712919222    2.35772516739483    4.02432396878788
H         4.05800984595885    2.43874712515101    3.68528006663511
C         4.68373467565320   -0.04943912077325    3.86842032802731
H         6.00988075210190   -1.55531975778001    4.47129806476248
H        -0.64992296394821    0.97294622975466   10.92312505759916

