58
CSD_code = TUYNUW | q = 0 | S = 0 | Stoichiometry = C19H33Cl3HfN2 | MND = 9
Hf        5.83960106348856    2.88388464955878   12.98682427911007
Cl       11.46499667624707    5.64076166149223   15.08064820950317
Cl        4.57939626365347    1.97521288167876   14.75597433293535
Cl        3.88103796482793    4.08080884457816   12.53349177633955
N         7.11373889197449    4.65614746029947   12.93400061869153
N         7.39461782136793    3.07068705523425   14.42198924400212
C         7.18718117655371    2.14101647021177   11.00122414039651
C         7.49094552144243    1.22335630444850   12.04473510332588
C         6.29749502702842    0.55162420603216   12.41323778479830
C         5.23914774743074    1.07642912882230   11.60950067894191
C         5.79416212300396    2.05570274465278   10.72415239560549
C         8.24332413628247    2.86216352791627   10.21394050761782
C         8.88746930658984    0.92078315868003   12.50436997326083
C         6.16294214463581   -0.62265297428377   13.34224337853410
C         3.82028677368105    0.57680785949446   11.59194112103358
C         5.04154096277671    2.68420242030977    9.58245737931026
C         7.75054448162783    4.28781543117699   14.03820458523750
C         8.82161486388307    5.07185842995390   14.77196307326218
C        10.19881416470222    4.70364142234205   14.23280971117922
C         7.06121804786529    5.99722016088658   12.33951404387754
C         8.42710213906393    6.63003862588780   12.02214398029016
C         6.22955929003732    6.91322827549820   13.25105445539357
C         6.32722805986305    5.83901222143357   10.99897620062497
C         7.89399466902141    2.40675550448898   15.61313595323742
C         7.14793825370281    2.83035779853508   16.88247247583527
H         8.76854690822829    3.59538844842152   10.82775422518479
H         7.81789068732583    3.36799816976330    9.35111831546948
H         8.98306098620134    2.14751235430254    9.84935543748862
H         8.88813053519893    0.36240344850323   13.43681986817564
H         9.45442686897252    1.83965136002740   12.65272060335591
H         9.41124322371497    0.32358222841518   11.75425636375121
H         5.82533823835657   -1.49813358161535   12.78562197452174
H         5.43584454713975   -0.42492007955092   14.13034509056347
H         7.11658814065061   -0.86495542399812   13.80480728544235
H         3.72277985410949   -0.27522513486591   10.91498073387654
H         3.13858283555690    1.35682941284127   11.25403968218369
H         3.51248566322435    0.25518206484835   12.58669711031483
H         4.72335301674968    1.91205745786487    8.87970703888826
H         5.66194584046004    3.39577746143833    9.04399281288385
H         4.15004746853292    3.20534498063433    9.93302375804147
H         8.78021316953981    4.83358164094081   15.83443240549449
H         8.65752200129551    6.14156928713287   14.66745304680646
H        10.29267811698984    4.93668278805323   13.17380627513858
H        10.42512360811862    3.65010224661720   14.39593995941204
H         8.94241899077296    7.00873894159383   12.89802820697597
H         8.27104913641413    7.46977702970335   11.34889253622521
H         9.06663555631733    5.91078013124000   11.51496857225407
H         5.24517137494786    6.47201005420557   13.40356629324417
H         6.10649681302541    7.88993561945093   12.79038064004311
H         6.70045026947142    7.04611352316781   14.22252128863894
H         6.94373317014366    5.28215620359737   10.30006075937313
H         6.12081699921067    6.81798668132594   10.57345269479738
H         5.38301675970497    5.31958532306593   11.14132135050518
H         8.97198706234495    2.56517244565402   15.74110580946774
H         7.72387588947574    1.33606087764476   15.46006365745630
H         7.26373375310236    3.89403308049772   17.07895161323784
H         7.53232705121058    2.27460961372210   17.73400762849542
H         6.08848789277561    2.61454807603954   16.77190155993500

