37
CSD_code = TUYPOS | q = 0 | S = 0 | Stoichiometry = C12H18BrN3O2Pd | MND = 4
Pd        1.56098737161909    3.19527037792679    1.54898890743041
Br        0.42601120284158    1.40764758650526    2.73014861168248
O         3.76805028927501    7.76259156576996   -2.88267473288993
O         3.56457868324720    9.02864973480305   -1.15621193313945
N         1.73322325472291    2.24949039615911   -0.34441128655779
N         1.37707712074579    4.70570565027444    3.03030542336660
N         3.51493448876047    7.94415054729875   -1.70620141697273
C         2.37497617908431    4.64935100927393    0.57615030597502
C         2.68090244259175    4.47050981316600   -0.77331327684712
C         3.06618338343444    5.55830483249257   -1.53187923162529
C         3.13396417169501    6.81162222906600   -0.92055115842945
C         2.85093703616000    6.99459443758848    0.43423482059385
C         2.46713536421216    5.90101608208911    1.18538687238171
C         2.62288978464734    3.03739540391820   -1.23777341616807
C         2.19906348601128    5.89108741884866    2.66896284629890
C        -0.04637569882286    5.04207286101808    2.90501685789216
C         1.66610955539742    4.27959045599945    4.39959088988266
C         0.34960896014342    2.34607180204878   -0.82553311931871
C         2.14937835869872    0.84755383911327   -0.31347807263760
H         3.31385997956363    5.47238167203220   -2.57928612709134
H         2.93745182737214    7.98381796899420    0.85829561521520
H         3.63438102551399    2.61982701774399   -1.17068119739144
H         2.28987735866129    2.94574558691464   -2.28031446244476
H         1.70823365946056    6.81114209879733    3.01378444369790
H         3.16313751890908    5.81148958158963    3.18504752950606
H        -0.65787993133178    4.15811830229106    3.11133606767239
H        -0.25610956559504    5.39672372316258    1.88947302096928
H        -0.32365218499697    5.83029258028752    3.61724366220090
H         1.50437155238722    5.10012109436072    5.10964372368053
H         2.70308218700135    3.94204827853692    4.46837137392265
H         1.01435975552556    3.44760613921773    4.67108096522944
H         0.25181678941128    1.89222628552392   -1.82046702994498
H         0.05110306512786    3.39862457982599   -0.88910853435558
H        -0.32173747176555    1.82198646346551   -0.13797113427944
H         1.45309137757698    0.27068507235913    0.29692369509349
H         3.14413555635167    0.76887043161306    0.13096716972887
H         2.16964206636202    0.42061707992883   -1.32369667232722

