83
CSD_code = TUYPUA | q = 0 | S = 0 | Stoichiometry = C28H36FeN12O6 | MND = 6
Fe       10.14123023572610    9.17138766781470   -0.00318458060123
N         9.41189311163096    9.09359987658695    1.82608313310751
N         6.58638158043480    8.74718043976637    6.10287144299350
N         8.62934651108182    8.97415364565085    6.90528612107820
N         9.14766391677994   10.72566234568208   -0.31733404601278
N         7.57827436511134   12.49506089068710   -0.76602825747444
N         7.41833720772005   14.90512460740091   -1.08585208544735
O         8.51276584080164    7.72698188083225   -0.75490403173045
O         5.60166947017979    8.64231697921546    5.31572910129824
O         9.88264384541881    9.11040937045035    6.99820132009180
C         8.10196721823911    9.18825619953141    2.07070929276880
H         7.46925066897239    9.35184799963267    1.20923171730857
C         7.55801525063616    9.12774685477232    3.33450021934565
H         6.49151703121648    9.19713798611375    3.47504763567390
C         8.40648425675275    8.96975742189459    4.43874330314059
C         9.78078486712507    8.88937924299803    4.17721160537185
H        10.48204344546712    8.78479776352959    4.98904731639999
C        10.22576724145641    8.95131799403076    2.87474471195422
H        11.27833443226548    8.87339121566065    2.64603203368698
C         7.88516989406957    8.89857360021527    5.78753992985713
C         7.76711525218474    9.05232379656243    8.10464795440939
C         6.42121280937902    8.53270048364915    7.55696206494098
C         7.74394916526882   10.53253751934584    8.50559375124720
H         8.76743477201774   10.85473728442041    8.68643992319800
H         7.16622580475236   10.67830828348865    9.41317157226928
H         7.33043925426204   11.14905991858701    7.71035885706275
C         8.38917428013769    8.23758193126498    9.23169959825918
H         8.51902995533207    7.19651596125395    8.95363260102134
H         7.77092546413563    8.29751111033883   10.12258056684557
H         9.37162098234506    8.64778021707314    9.45282855483440
C         5.17544498106387    9.26451986169780    8.04027297158550
H         5.23286723527786   10.33113277417404    7.84795877981012
H         5.03228856862130    9.09815919366469    9.10389614848847
H         4.31541723552380    8.87488153524912    7.50084693251278
C         6.22046979198124    7.02275865477738    7.73634414990192
H         5.35150138668212    6.72086129841791    7.15516704448006
H         6.04572303080451    6.77715738412043    8.77931930434992
H         7.08133669492212    6.46575392603621    7.37287437034495
C         8.44313389731052   11.63764589951069   -0.54056639755043
C         7.54264450505801   13.76994354980302   -0.92771836598451
H         8.99258857731012    6.92352215905244   -0.98713116874743
H         7.84318179476958    7.47265504469532   -0.11135841899548
N        10.87172307934831    9.24842443491387   -1.83166918035427
N        13.70632877005168    9.59140005887303   -6.10249171055482
N        11.66503666676655    9.36496701156388   -6.90931428074261
N        11.13376589740440    7.61633151780528    0.31071211703566
N        12.70475904931416    5.85398051593702    0.78114109422134
N        12.86899411457829    3.44734396441837    1.12318295916086
O        11.76989468997875   10.61636724885026    0.74792308076822
O        14.68927414126483    9.69678970079772   -5.31320148645594
O        10.41184509187141    9.22941325722113   -7.00486688832472
C        12.18205876660114    9.15249912760127   -2.07364023956646
H        12.81293637667590    8.98865230110467   -1.21087133592881
C        12.72856086272937    9.21230648888019   -3.33633628414505
H        13.79526042869460    9.14173925444457   -3.47472085729628
C        11.88243869864971    9.37101157908016   -4.44226285936896
C        10.50771623904984    9.45303396172036   -4.18347498983032
H         9.80822109314780    9.55823139875929   -4.99675009653761
C        10.06006219533752    9.39164631059643   -2.88185038452146
H         9.00719326142815    9.47099800043988   -2.65504863871313
C        12.40674400286923    9.44103676997766   -5.78997662337172
C        12.52993368627723    9.28505874578640   -8.10665284250761
C        13.87500239878468    9.80417588053739   -7.55642532777150
C        12.55288862207481    7.80445733035406   -8.50617261629269
H        11.52959498674281    7.48290707244440   -8.68923725447141
H        13.13274029927008    7.65736769039270   -9.41217735082114
H        12.96392860516138    7.18835441036732   -7.70933072764467
C        11.91110250810611   10.09925234739542   -9.23587243849779
H        11.78116540124841   11.14061035025595   -8.95892987760610
H        12.53152992528436   10.03828127418413  -10.12516843545399
H        10.92897704084196    9.68943864163711   -9.45912182914995
C        15.12130812439842    9.07078161094302   -8.03598880724735
H        15.06238517191568    8.00435973787180   -7.84308113103853
H        15.26740790164682    9.23626075437187   -9.09934984708461
H        15.98029143845103    9.45999848260114   -7.49459083006925
C        14.07752468899743   11.31373511613226   -7.73701382352697
H        14.94540946894215   11.61546877569524   -7.15413387952591
H        14.25493912609813   11.55802583551865   -8.77984491903642
H        13.21632899175453   11.87193383999613   -7.37617217630460
C        11.83912125297166    6.70785844647352    0.54563175336839
C        12.74233426599241    4.58112576301857    0.95749776197208
H        11.28977209285374   11.41745444258498    0.98752536539793
H        12.43393474616583   10.87568877872664    0.10062916077450

