37
CSD_code = TUYQAF | q = 0 | S = 0 | Stoichiometry = C12H18BrN3O2Pt | MND = 4
Pt        4.90055540352605    2.69201726214651    3.65373406946967
Br        5.33752513502899    0.29715323221328    3.64243197661256
O         4.57056251239439    9.40841852566525    3.07302139593643
O         2.80931468380289    9.08042638262237    4.26351335258537
N         3.29475679467634    2.71568218474164    5.03050158223664
N         6.38866357579934    3.29303136645267    2.27519372975375
N         3.79363824006752    8.68231911727127    3.66684244687780
C         4.54799668099755    4.59409419647917    3.65663938544789
C         3.40889709521575    5.07033280822299    4.30319960164531
C         3.15786938286155    6.42655005860575    4.31691785304305
C         4.05268446430804    7.27809549599707    3.66315057911561
C         5.19180687053681    6.80507182003035    3.00603882281053
C         5.44127357975353    5.44848412288017    3.01285211544865
C         2.52937797370143    3.98673200282955    4.87357185181214
C         3.96702126358730    2.71014778210069    6.33499237785610
C         2.37899311315706    1.57630511177268    4.95292071765729
C         6.64868877221843    4.75332354394332    2.43683255088361
C         7.65172252300249    2.55697218437764    2.35005711820868
C         5.76215106625013    3.05103128336942    0.97050074785597
H         2.29436947322638    6.85177712802046    4.80598496468755
H         5.84618766325623    7.51300136964486    2.51995415238358
H         1.71321322241108    3.80601087698044    4.16590361900615
H         2.08292251160368    4.27340171431571    5.83354883560960
H         3.23347848726839    2.70272373927043    7.14941226134761
H         4.59274372295923    3.59909640670737    6.43274353571769
H         4.59334283687068    1.81996228783157    6.42293849008800
H         2.92449226690102    0.65129923682598    5.13747661971174
H         1.93958103891844    1.52157959829007    3.95598432639517
H         1.57838498074371    1.66695257614346    5.69504645585151
H         6.95975870337486    5.18397116147937    1.47728371999447
H         7.47762900578158    4.87450243449560    3.14227134287206
H         7.47396330806097    1.49876187996633    2.16119848682111
H         8.08148338822069    2.65963760100229    3.34732176462862
H         8.36671291354030    2.93149753902155    1.60951426717048
H         6.45003627979680    3.30649114747848    0.15640736589717
H         4.86097239361030    3.65940585107458    0.87396147495810
H         5.49342867257015    1.99643896972929    0.88053604160208

