68
CSD_code = TUYTIQ | q = 0 | S = 0 | Stoichiometry = C31H28F3NiO3PS | MND = 7
Ni        6.07170090977895    3.36279936495489   12.21887682953028
S         7.68015001491577    1.47590722928948   12.22076824064315
P         6.92185140426305    5.04888957491156   13.31045004344520
F         9.92168772228200    2.62580329926895   13.05398697585326
F        10.28121263226378    0.96071783094309   11.73588896538432
F         9.70384637858445    0.60868011262913   13.78562568149510
O         7.71352984813996    2.63057759788067   11.31959810192694
O         7.00701016870320    1.74302193120072   13.47417893890201
O         7.41249551064466    0.21957451202983   11.59707686934068
C         4.52356417842303    1.96767343133551   11.00581663599080
C         4.31217293337052    3.34579424380035   11.02541511816610
H         4.25770380220429    3.99786152753712   10.16531938068421
C         4.16322398343974    3.77017901276592   12.39313599118185
H         3.75502748039703    4.73097234400416   12.68581911574987
C         3.98335143759238    2.55888997114755   13.20029188557649
C         3.65797589154758    2.36404739123202   14.53166466128873
H         3.43866362462194    3.20459793317405   15.17556269737605
C         3.62060527188707    1.06214208728690   15.01666477485112
H         3.36667622611007    0.88783207558949   16.05197018309926
C         3.91869400438914   -0.01450706671874   14.19616158265523
H         3.90219035607991   -1.01319562690539   14.60680553248227
C         4.24228235342678    0.16438412074959   12.85631541771910
H         4.49475079216341   -0.68140438067440   12.23560719088244
C         4.25733291627035    1.45143846303609   12.35072636755472
C         4.79384617246040    1.09386122102024    9.82407246880858
H         5.46136602211073    0.29073500262060   10.15705237295893
C         3.47381599181871    0.47653993222789    9.34015423882939
H         2.98736878779520   -0.07480915356221   10.14089796711245
H         3.66510473310372   -0.20342371244911    8.51368995106746
H         2.79666752533650    1.25768124012047    8.99923109206258
C         5.48714566883086    1.85730383973737    8.69713165884839
H         4.82537497865085    2.60598557063132    8.26487307005594
H         5.78629292198888    1.16919864626129    7.90997489329024
H         6.37915483573347    2.34821306138543    9.08269774819564
C         9.49433131962790    1.39609822781309   12.72556066766908
C         5.82268764416069    6.34672011111998   13.98358524020419
C         5.63981986580593    6.59031491053478   15.33790612196982
H         6.16189921222109    5.99115816805362   16.06925384227245
C         4.79282810636429    7.60628324213999   15.74999521595813
H         4.65620633852543    7.79359418388366   16.80491619745799
C         4.12541354374055    8.38219117150897   14.81808259852264
H         3.46692632856821    9.17308958499192   15.14459337442646
C         4.30272640811063    8.14161604687132   13.46377542318402
H         3.78290921103449    8.74544070629156   12.73479378718655
C         5.14328279310586    7.12681453553046   13.05015909217037
H         5.28953818077495    6.92303153881573   11.99704088050009
C         8.13170584233257    6.09818041057526   12.44088105668630
C         8.60283593975390    7.27137497694261   13.02583048584157
H         8.24432817886653    7.56622738198358   14.00225636138950
C         9.52549258446548    8.05181602596446   12.35458085635143
H         9.89464574389276    8.95904533885778   12.81008450892269
C         9.97717698963013    7.67194794450252   11.09969227908606
H        10.69885837787745    8.28489644484392   10.58016802099600
C         9.50317824626134    6.51050669685377   10.51288613264220
H         9.85434947228288    6.21736595215019    9.53480250332760
C         8.57920744757255    5.72385202346600   11.17976300373789
H         8.20479241579849    4.80892979981341   10.74002991441405
C         7.80106641975206    4.43679397579410   14.77949871524782
C         7.06923707234100    3.61383930405016   15.63515576509964
H         6.03698278380169    3.39314701147449   15.39657276143635
C         7.67379918621267    3.05893476804569   16.74545875777273
H         7.10863966903122    2.41363868547378   17.40126545161734
C         9.01207408193506    3.31419058780606   17.00476314201151
H         9.48939200727392    2.86925478891603   17.86537921264098
C         9.74187305862655    4.12405654547070   16.15171337541040
H        10.78757912458392    4.31097007232143   16.34635324846070
C         9.14312051199920    4.68383313860273   15.03547879362601
H         9.72435841435022    5.29268307007128   14.35912056873563

