77
CSD_code = TUYTAI | q = 0 | S = 0 | Stoichiometry = C30H43ClN2Pd | MND = 5
Pd       14.11802407988605   -6.54058863094112    2.62297390422550
Cl       13.70972422120351   -5.30060394386647    4.51211462547114
N        15.12609052568355   -8.34327995197591    4.83219823764312
N        13.97336347699848   -9.45028269932404    3.37466854442892
C        14.43642815015636   -8.23414429527629    3.69932379080101
C        15.26540143966205   -9.73314490954885    5.27316697382558
C        14.22674637687224  -10.44543490828333    4.41651058089773
C        15.82738984270930   -7.33398837170077    5.54630822105061
C        15.38282852278432   -6.98690287798849    6.82784801105581
C        16.13485575038160   -6.08311859413249    7.56318117752355
C        17.28831346141477   -5.52795216124127    7.04514195988189
C        17.69617077734231   -5.85545911267506    5.76862731083599
C        16.97833825447433   -6.76187311219916    4.99858549955746
C        17.43722819899587   -7.06015641624257    3.58927421997524
C        18.85577465354118   -7.63245779354585    3.56592563698059
C        17.33898196904960   -5.77457181980891    2.75981665658337
C        14.37687420703224   -8.37330801930637    8.66078720420061
C        14.09908709280889   -7.53106625693997    7.41129331063851
C        13.13510051893013   -6.38883289138086    7.73824539275251
C        13.06011427518359   -9.72377618455442    2.32216761848848
C        13.47813926814332  -10.51446917253337    1.24400837558629
C        12.57282913105831  -10.77370784247083    0.22494155416414
C        11.29231759827116  -10.25589444688310    0.26522182617483
C        10.88810584762351   -9.49282655326396    1.34240652979656
C        11.75487859359403   -9.22133103283396    2.39500754506415
C        11.25260420731250   -8.44084975913283    3.58912374084301
C        10.83847334270427   -7.02657560091633    3.17654210954772
C        10.09146308380212   -9.18281927862319    4.25709165471489
C        15.56768893345076  -10.85828343563477   -0.14567406527260
C        14.86692402284564  -11.11183949421059    1.19029120595802
C        14.78792898570765  -12.62150888973303    1.44573517247487
C        13.63417775323829   -4.94339338160627    1.26155739602183
C        14.50907274781291   -5.84801077378491    0.66325791515090
C        14.18360986935191   -7.21708223672314    0.62876193560269
H        15.08937790042801   -9.83318974720341    6.34263990860308
H        16.28586419550932  -10.07583296108567    5.05685588010064
H        14.58788928738342  -11.38283168770147    3.99490663957646
H        13.29856595212353  -10.64614735517164    4.96753734088351
H        15.80843232969384   -5.79878519797783    8.55121490240428
H        17.86080884784689   -4.82443055084336    7.63152527450169
H        18.58568406566272   -5.39774697218001    5.36340460827313
H        16.76538088231795   -7.79932395969358    3.12914688164064
H        19.13954228214918   -7.88691398531646    2.54666343480629
H        18.91628645274724   -8.53190454029888    4.17606692633389
H        19.57446674571056   -6.91327738412176    3.94981590704460
H        16.31936898050032   -5.36401046586649    2.84957366945369
H        17.56887781127512   -5.98213695108630    1.71503768519448
H        18.03657872903964   -5.02333427410337    3.12282164945468
H        15.10232513065627   -9.16120287123491    8.46059910228289
H        13.45648928700592   -8.83264484085008    9.01571408084806
H        14.77478919625810   -7.75040446140090    9.45772500361442
H        13.60373325239517   -8.15424940652681    6.66169395525480
H        13.52256511841617   -5.76156559874976    8.53605177519288
H        12.17504827653427   -6.79264879649590    8.05366841096433
H        12.99201934343230   -5.77665432736088    6.85148741901610
H        12.87033692601686  -11.38363075886220   -0.61381858513460
H        10.60443008704825  -10.45696774907936   -0.54286360007877
H         9.88010291236947   -9.10821374577334    1.36932290650164
H        12.05565253120346   -8.33163630351841    4.32663982703079
H        11.72142515635556   -6.48972191247195    2.79550852357787
H        10.46675052939229   -6.48312354543777    4.04211893605280
H        10.06536301358661   -7.04291650593563    2.41128040709453
H         9.22924860958310   -9.23589251550915    3.59718871539823
H         9.79510367010768   -8.66179073986702    5.16437123232781
H        10.38174761982167  -10.19890418510414    4.51979733596602
H        16.59153792003357  -11.22365902003432   -0.09778716187527
H        15.59401271557502   -9.79614309193332   -0.37286097237853
H        15.06491409573629  -11.36963595278166   -0.96191795460319
H        15.47674390138198  -10.64598821513420    1.97049831322048
H        14.25770025487356  -12.84105856126335    2.37042786478126
H        15.78710565837231  -13.04762542844801    1.50776564861658
H        14.25600272397690  -13.11170051697050    0.63382494311213
H        12.55727845865044   -5.08604504728611    1.14879403040049
H        13.93940144019121   -3.90672237743489    1.36747733983356
H        15.52665916988371   -5.53576292806092    0.42975070427514
H        13.15063216264699   -7.50207851072799    0.42850303822628
H        14.91360719608326   -7.89921120379148    0.21039627957559

