74
CSD_code = TUYVAM | q = 1 | S = 0 | Stoichiometry = C26H40NNiP4S2(1+) | MND = 5
Ni        4.84201897689356   19.30794078290905    4.63102848591664
S         2.46379014374486   19.06296362414310    5.90336669712172
S         3.72594050210840   15.53459559804943    2.59197445568492
P         3.13976668594076   20.04986041057638    7.45047732733862
P         5.04207361107289   21.30055942047838    5.44254671202064
P         5.79653069716568   18.19841168429425    6.28684794797055
P         3.99537688713534   20.20337058192436    2.84123287778160
N         4.94728674922478   17.76823284401550    3.63920679144053
C         4.05550044880068   21.60067769228565    6.98522959266979
H         4.70390042739572   21.92027090385243    7.80412630547132
H         3.29429364177441   22.36600209026431    6.80053113576298
C         4.32595655422550   19.12786901765978    8.53494605222201
H         4.35796092814488   19.63263948556735    9.50575452378094
H         3.86341761281410   18.14603288364778    8.68504820615689
C         5.73124226721262   18.98342864147657    7.96399688596881
H         6.34255010175032   18.38151954433371    8.64384106483515
H         6.21072734203802   19.96539114430078    7.87105266719127
C         4.31802383423308   22.52978185903221    4.25376868305521
H         3.89271653551372   23.38103534161543    4.79368369175888
H         5.14601776832492   22.90101107574795    3.64161860673410
C         3.28667713590385   21.82561920949729    3.37973221365814
H         3.00567757552291   22.42879280842985    2.51283938225540
H         2.38506340751742   21.60268183449809    3.95926578501004
C         1.82636943243483   20.59764435435491    8.57055975188921
C         2.10938842067349   21.44595773617000    9.63739938504862
H         3.11912112570521   21.79320106112584    9.80935745834749
C         1.08877227699883   21.84562391222903   10.47887559878104
H         1.30309686803936   22.50393360907794   11.30692320845860
C        -0.20720326671943   21.40146616447210   10.26113903600874
H        -0.99896196420512   21.71571937426880   10.92333646642528
C        -0.48736393562814   20.55827555297965    9.19847028837894
H        -1.49570659590672   20.21351093464802    9.02996597583917
C         0.52842151473335   20.15519293265359    8.34985710866582
H         0.32909974350372   19.49992606088176    7.51339080504771
C         6.66935015088318   22.01444887152746    5.78514519385691
C         6.87530500325962   23.14706848867836    6.56538353040758
H         6.04357237524465   23.64615752842298    7.04239227716980
C         8.15788015811287   23.64281987698308    6.71891424250401
H         8.32254048062881   24.52057463746240    7.32495596517992
C         9.22893059002769   23.02162093955366    6.09468655564690
H        10.22522636827470   23.41527203361235    6.22246096045456
C         9.02347153345317   21.90249651080385    5.30305594022956
H         9.85647883691838   21.42530663791670    4.80990478664939
C         7.74471808634833   21.40114529623368    5.14806256580129
H         7.55469535816656   20.52856676028007    4.53008915931723
C         7.61159427389804   17.93338041395415    6.15414914104628
H         8.09942628315941   18.89366785830856    6.34633519102962
H         7.91730561489527   17.23608193594979    6.93787126811218
C         7.99944478532332   17.40637034838629    4.77889571263503
H         7.57916239740537   16.41840131592171    4.60730313674178
H         9.08093386679312   17.34041859378696    4.68656182347232
H         7.62102231927107   18.06828841609518    3.99943805663590
C         5.08675733843161   16.52020536702270    6.53556619144876
H         3.99853594230981   16.63671369266443    6.56628717176462
H         5.31578905637528   15.96754264621787    5.61998176143189
C         5.58024341296081   15.74597949818769    7.75166464159242
H         6.65729701058309   15.60063733819818    7.72595334493404
H         5.11598398038114   14.76236024831408    7.75030232466295
H         5.31643781825397   16.23410999374856    8.68685449540073
C         5.26274215850546   20.69863298198480    1.60389981603299
H         4.75411465217913   21.27456883515594    0.82438998960968
H         5.98371419994722   21.35284998053882    2.10399691377027
C         5.99250210119464   19.50170025082559    1.00537063270095
H         6.40991897102117   18.87810839406399    1.79444801948298
H         6.80213770221297   19.83968675988185    0.36285423857462
H         5.32116617479779   18.88826965792571    0.41058530576205
C         2.69660598250399   19.42179231238984    1.81645840522752
H         2.42952708261571   20.14886526128139    1.04141527449577
H         3.15597017863917   18.55292738182260    1.33687054439674
C         1.46973367635971   18.97969924355789    2.60167409965754
H         1.75212144058208   18.27931395930678    3.38495151226682
H         0.76760630366964   18.48189767571695    1.93762971350510
H         0.96417913239605   19.82420828410559    3.06349310782001
C         4.34941374792387   16.83150360175823    3.21765581389990

