96
CSD_code = TUYVAK | q = 0 | S = 0 | Stoichiometry = C38H51BO2P2PtSi | MND = 4
Pt       -0.24254875725042    2.63360109371700    4.01662723268727
P         0.88848723389654    0.81324133335201    2.88799638284368
P         0.31505358122728    1.90699983243267    6.20222176039744
Si       -1.66018870730586    4.39865861770667    4.63218940176228
B         1.15459805023718    4.69024729929834    1.97716905516044
O         1.91622613674403    4.16158733608916    3.00507900890422
O         1.68077926207056    5.86491091812535    1.51073433615179
C        -0.86911686231623    3.17232619360133    2.15052131647598
C        -0.11308537353853    4.01229710478361    1.42001383637881
C        -2.10272000292078    2.55912763378101    1.64787357973502
C        -2.73234548457963    1.58009711790113    2.42337979055268
C        -3.88968871737433    0.95616181753223    2.00373378676053
C        -4.46320876155363    1.30350089242659    0.79118158445884
C        -3.86475560745009    2.28111629544055    0.01337464272086
C        -2.70268764413506    2.89988922474242    0.43307094131413
C         3.13088892762105    4.91578418511885    3.07093062150323
C         2.72200813877966    6.26795544414906    2.39754894123475
C         3.64088987371756    5.04080110997789    4.50174370893040
C         4.18231387278362    4.17101844457773    2.23098166386517
C         2.10896044517876    7.25361535165568    3.40080741767078
C         3.82795176660118    6.96621729696124    1.61108051904423
C        -3.46279789612256    3.86941105614128    5.11046578456117
C        -1.97277125641659    5.87835021018069    3.43100129636529
C        -0.94825549395728    5.33062508772912    6.15965474539246
C         0.42539308458554    5.30531446182960    6.36592749238455
C         1.01622144793093    5.98293167602599    7.41713730640563
C         0.22635136092299    6.70245647318911    8.29890825143939
C        -1.14544178355817    6.73735933171159    8.11384296100391
C        -1.72174094681111    6.06112646200244    7.05183297412203
C         1.66301047414752    1.22055739577920    1.27092718806607
C        -0.11586090776935   -0.62718214420030    2.34801672135986
C         2.33557375314721    0.03513635439546    3.68084354443081
C         3.29285872169520    0.92642034980472    4.15623462942598
C         4.44740450945851    0.47077229803232    4.76251582726563
C         4.64729335915384   -0.89235266500544    4.91910047052748
C         3.68919549165300   -1.78443754571364    4.46941319815775
C         2.53697803568168   -1.32738347274731    3.85179677235119
C         1.89807041138026    2.13303432521489    7.11161827797946
C        -0.83935391591845    2.30039959949320    7.58233334155755
C         0.09558100458616    0.09446473742895    6.21439526909809
C         1.04922326839552   -0.83298316047472    6.60981766485358
C         0.76441274259541   -2.18751736421741    6.55995155660590
C        -0.46910764196575   -2.62906431264668    6.11474961766407
C        -1.42500586244587   -1.70929957564057    5.71050292362215
C        -1.13984303131022   -0.35865774696366    5.75728460865379
H        -0.40072109372756    4.26903203750246    0.40364778001425
H        -2.28710817133858    1.32484050277718    3.38224989992937
H        -4.35365832284227    0.20175629519757    2.62406919136672
H        -5.37239703950763    0.82377987156219    0.45878148857030
H        -4.31216382976508    2.56569156579389   -0.92879759583752
H        -2.26320946245377    3.66621056306152   -0.18740760746966
H         2.91114043389723    5.51786063854651    5.14441047496793
H         4.55762083405111    5.62614135386160    4.50974375506000
H         3.85588013800119    4.05121276765246    4.89897277129005
H         3.84880630558587    4.09632746868448    1.19773545834307
H         5.13862451072086    4.68506433196771    2.26482013006781
H         4.31741522456083    3.16447415066692    2.62081559917007
H         2.87000151922395    7.67417917420362    4.05217383140224
H         1.34329456821970    6.76048678213716    3.99613381228780
H         1.63506731331034    8.05996351399675    2.84543071608287
H         4.14412464530730    6.36932056522835    0.76139904791994
H         4.68092575985915    7.16284960380533    2.25566998825127
H         3.44741757322674    7.91207361000070    1.23396805077274
H        -3.49836922172982    3.22235740770557    5.98065392347762
H        -3.93684183360995    3.34650311801106    4.28650369765976
H        -4.06387146369882    4.74614986274885    5.32636820810090
H        -2.63091862906287    5.57851651180881    2.62235503962850
H        -2.43476396522470    6.71325984223810    3.95073669151262
H        -1.04855824120398    6.22843470138798    2.98362721114090
H         1.02390156043265    4.72762659149436    5.67189504710722
H         2.08994234757725    5.95561983457682    7.55881299564037
H         0.67797899620664    7.23247311404803    9.12591177417491
H        -1.76567455496702    7.29665737478196    8.80110967748305
H        -2.79251629658893    6.09746200188714    6.91721231842726
H         0.87622059477324    1.48424337449444    0.56687474635065
H         2.31648368262278    2.07942356138786    1.39035380830065
H         2.23119280066897    0.36874370278132    0.89676698903243
H        -0.94735904559915   -0.25197161865661    1.75291210819336
H        -0.51615730988507   -1.15455484581729    3.21125831810028
H         0.48165901732331   -1.30502115402178    1.73988896108072
H         3.09583014023940    1.98449828620608    4.04442820202783
H         5.19124453205370    1.17008927649308    5.11987635986819
H         5.54540713993525   -1.25653388350339    5.39627242892962
H         3.84019668552918   -2.84650921190592    4.59969230332171
H         1.79862611594731   -2.03851419902681    3.51456229759460
H         2.02225047380111    3.19579948230221    7.30819958019082
H         2.73608890748610    1.78199023749568    6.51456218835599
H         1.86781223013098    1.59699641356390    8.05968482236794
H        -0.61471266567974    1.67770062485459    8.44797216427485
H        -1.86260190598167    2.12267342945891    7.26263035983586
H        -0.73999276562070    3.35069001694113    7.84491360761956
H         2.02133796460033   -0.51015704829729    6.95062323486998
H         1.51349901897206   -2.90176136001664    6.87028513802509
H        -0.68559062144183   -3.68682257520632    6.07918712712041
H        -2.38837166874230   -2.04927936511568    5.35768980742383
H        -1.87523322500379    0.37061532340519    5.43803011881160

