78
CSD_code = TUZJEE | q = 0 | S = 0 | Stoichiometry = C39H33ClIrNOP2 | MND = 6
Ir        5.41507949039404   16.06031619788566    2.29135438999184
H         5.59352796683113   14.66066311942193    1.67355691161777
C         3.62008402944171   16.22677365822515    1.38208816709934
Cl        5.05811037176411   18.24288577791379    3.26579280371506
O         3.45414544379587   16.22945482667612    0.17039027495976
P         4.16049956530045   15.45420525612255    4.14567004502459
C         2.44664116110619   16.42737032178940    2.28650361433901
N         6.03535369415444   16.61846194346169   -0.51588699593738
H         5.07815968389102   16.24615696657392   -0.61264868780500
P         7.60210813507914   16.09859325989906    3.27374331389203
C         2.54780883152042   16.12732607082201    3.64878479430817
C         1.46017676960272   16.30651164500203    4.49005935118649
H         1.53808737404706   16.05440945043621    5.53879970130225
C         0.27924549071469   16.82063228570005    3.98106330853800
H        -0.56524292908274   16.97495022961113    4.63736172268587
C         0.17767626557240   17.13963998671906    2.63497760531986
H        -0.74531546098612   17.54582739185636    2.24741368301440
C         1.25133296632208   16.93706021582608    1.78782699854577
H         1.18600684628153   17.17366471314113    0.73578474790590
C         4.55429098969227   16.16071342851650    5.76733655406753
C         5.48443201496943   15.47395630577555    6.54528042304936
H         5.88398869917820   14.53238160969369    6.18704403236199
C         5.88408817940846   15.98503015037571    7.76396488358614
H         6.59672842665562   15.44378711607805    8.36914087963377
C         5.37775188810778   17.19854750690584    8.20184566240592
H         5.69357570774118   17.60179775843713    9.15303575154813
C         4.47613418120067   17.89788322204699    7.41757267629747
H         4.09383012233763   18.85106107211287    7.75330186285788
C         4.06279962613766   17.38532002371683    6.20057134692804
H         3.37526983610306   17.93997652669919    5.57944055639761
C         3.63115197182879   13.76421688165717    4.61005322952203
C         3.72214882375769   12.76837028757482    3.64441104359336
H         4.14519707836607   13.01426456925008    2.67952412602940
C         3.28298390768760   11.48616416160964    3.92022787418858
H         3.35959980858086   10.71613911729925    3.16650313402161
C         2.74672977333868   11.19069443315586    5.16269177872389
H         2.40484056873753   10.18963280047256    5.38145299064091
C         2.64964468362412   12.18087946458479    6.12694991258298
H         2.23017178676270   11.95209816693828    7.09620729783118
C         3.08745383543208   13.46409943615294    5.85475806649918
H         3.01652881980670   14.22962724614828    6.61514354442547
C         6.40681555916666   16.83356388179190    0.71890902328131
C         7.59331959755922   17.64164840793466    1.01499021248408
C         8.30204599197003   17.39260656821762    2.20527889022370
C         9.39260973965239   18.17391029786051    2.55668752084883
H         9.92337183206175   17.97090436575627    3.47714207199689
C         9.77715864761695   19.23231669457054    1.75149922333945
H        10.62614933813120   19.84049457655595    2.02692574621424
C         9.04036194543900   19.53547578456937    0.61780438114404
H         9.30236800905743   20.39575386696650    0.01933815598647
C         7.96114722253715   18.75300821721202    0.25115640067997
H         7.36633761014617   19.04636675036123   -0.59958605803565
C         8.69036221163653   14.66216859574185    2.98774175177614
C         9.97138445245054   14.75795957168127    2.45926961449743
H        10.37325036591490   15.72347896093061    2.18534086459685
C        10.73095318377941   13.61487652270134    2.28036196071527
H        11.72683319295097   13.69205744238425    1.86807400481868
C        10.22032731061836   12.37519658828108    2.62798553133502
H        10.81825441248178   11.48676185041231    2.48686228053436
C         8.94024775237215   12.27426232027141    3.14983497137173
H         8.53802358923588   11.30731202363277    3.41504905472323
C         8.17637765703637   13.41270052779596    3.32342203315463
H         7.16799585368691   13.34788528834368    3.71244614790576
C         8.14375124394797   16.64756014145538    4.92176286715220
C         8.88328078597405   15.83996196459034    5.77956358541708
H         9.19348369014388   14.85341853084539    5.46349975769139
C         9.23254860160661   16.30541153951873    7.03463741658860
H         9.81794181430376   15.67913568196780    7.69315619968553
C         8.83651224718934   17.56638921203023    7.44759988189555
H         9.11341253690668   17.92504985129063    8.42843431754424
C         8.07889524575313   18.36360615792789    6.60442702743924
H         7.75719581531171   19.34263834743897    6.92797868706105
C         7.73012014574921   17.90836412476098    5.34828061886672
H         7.12433865553661   18.51848525193915    4.69354168899281
C         6.73603734444822   16.83577747142438   -1.75854297449732
H         6.34233254169771   17.70794365792638   -2.28599839099184
H         6.58604466085364   15.96182449605577   -2.39407341168695
H         7.80268276992034   16.96917986457984   -1.58399443166109

