90
CSD_code = TUZLAD | q = 0 | S = 0 | Stoichiometry = C44H40Br2N2NiO | MND = 5
Br        2.72767745889447   -1.01029156735553    5.33462278044640
Ni        4.73806291525462    0.21608097008272    4.86416012023505
Br        5.85953098948521    1.90094535378039    3.71744148438522
N         5.73641699747960   -0.76982288667441    6.71058143673052
N         5.56586959664765   -1.11600689578961    3.98051481990140
C         6.94532499186872   -3.58205152151246    8.02166921516899
H         6.86544364121622   -2.94667311362114    8.89036814145016
C         6.00688326543979   -1.92423113830344    6.21850157176466
C         6.55822355515607   -3.15956144546229    6.77263054627596
C         6.76002604782303   -4.02488093127593    5.67256696336653
C         7.38075326220071   -6.05652397729411    4.58732716564294
H         7.76176027317149   -7.06677842742308    4.61671860016302
C         7.27014948110832   -5.32124851726370    5.78821785968016
C         5.05691200520649   -0.66498647870273   10.33382119329152
H         4.44633836303231   -1.15239455500070   11.08073410822921
C         7.34124618954937   -1.23129555085762    2.33917443015900
C         7.47594301574876   -4.87877061738780    8.15495450554949
H         7.76966904441037   -5.20724414473273    9.14136003682768
C         4.98442350171527   -1.10574101818499    9.02187832295947
C         7.62259972258282   -5.73611442075383    7.09219122774670
H         8.01882072009515   -6.72940892215644    7.24387468520830
C         4.02832716059960   -2.20614821285137    8.67652061237654
H         4.46998310139500   -3.18351549579647    8.87767243772409
H         3.73816727928348   -2.17913793457084    7.63085246016162
H         3.12879263469427   -2.11578415649209    9.28139857322221
C         6.41426840423108   -3.42869960600925    4.43570224310908
C         5.94701724351430    0.79616976066508   12.15990807223538
H         6.71600650223980    1.56692923531746   12.28133881360975
C         5.77532167501845   -0.45692656807604    8.05863478993584
C         6.81837861312378   -1.18615474333781   -0.03398711373945
C         5.95027103773208   -2.08724338804548    4.75397680559320
C         7.72716685430144   -1.27756545594226    1.00938379302740
H         8.77829968799331   -1.38222144928070    0.78304425685521
C         7.40811108369414    1.31418356845459    7.37286087220224
H         8.25695611751005    0.69196632051473    7.08599139162081
H         7.78498276994915    2.26871082130795    7.72980359621920
H         6.80812503279568    1.47933588388699    6.47723613266077
C         6.64297276760208    1.02322461407227    9.74503656041741
H         7.28546546847115    1.84734151644922   10.02224816682033
C         7.00626959601194   -5.49247550915635    3.39123345860105
H         7.09001057085598   -6.07486222339913    2.48541764529748
C         4.61257904793978    1.29595842319511   12.65687812852033
C         6.20628532103711   -0.36757250960299   13.08318244109506
C         8.43219775333764   -1.20544092942131    3.37645458225666
H         8.03134557468961   -1.24607397495202    4.38980914098043
H         9.07205099555655   -2.08347974200366    3.24452650541926
C         6.52819538605478   -4.17480760375561    3.28632235740708
H         6.26383613387796   -3.77679739946010    2.31860512895572
C         6.58452928347265    0.63492392423909    8.41967558853798
C         5.48071157923636   -1.00303284686373    0.28104246264850
H         4.75671842074246   -0.88816517626540   -0.51248159103277
C         5.89002850058510    0.37654592621018   10.71462536052246
C         5.04075678296221   -0.95882797539695    1.59243642583635
C         5.96621466828641   -1.12445748959288    2.63507815375825
C         3.58127964034718   -0.77356532662861    1.86941688810772
H         3.12282441424442   -0.23300937565631    1.03956121864841
H         3.45480791051607   -0.15930461318236    2.77449591513529
C         4.16332138124759    0.51552486530114   13.73218083501500
C         3.85634807436262    2.34548473028416   12.18254647728843
H         4.19891074415007    2.94023380668007   11.34809354627803
C         2.95242284147200    0.79620704431335   14.34363787861268
H         2.60127204916422    0.20129567221601   15.17373984093801
C         5.15201735146502   -0.51797310190792   13.99628726182123
C         2.19907428053282    1.85666372443669   13.86683250947778
H         1.25204501425638    2.09059540853777   14.33104409777163
C         2.87856451524357   -2.11932508690707    2.04869967939879
H         2.94948938342349   -2.70500343278061    1.13382755787321
H         1.83025550835463   -1.96697031887458    2.29011155934429
H         3.33090118198816   -2.68875407070307    2.85762337705632
C         7.27461704244062   -1.23079826099159   -1.45809305121198
H         7.47769827818124   -0.21877621272229   -1.80935112821354
H         6.50784356652730   -1.66040573667014   -2.09858671294469
H         8.18884836905548   -1.81143678097695   -1.55669467358067
C         5.17873549983970   -1.53560535469964   14.93580831314336
H         4.37168473839452   -1.65609653060314   15.64316785140248
C         7.29926106504197   -2.25206697539731   14.03894935904764
H         8.13304920520013   -2.93857302730270   14.06546694874856
C         7.27859812209330   -1.23299030759873   13.09610926142310
H         8.08662913021368   -1.12162066446914   12.38698251288892
C         9.26743516798121    0.07104187966021    3.24916664392197
H         8.63246357279069    0.94528779066834    3.36531166675075
H         9.75166006149279    0.12926588686954    2.27846962311655
H        10.03405573176288    0.09150179677286    4.02044637690264
C         2.64306855193949    2.62133829438893   12.79856015024674
H         2.03724448239622    3.44128330900506   12.44160048376641
C         6.26232371143271   -2.39895441084585   14.94791297111806
H         6.30024760282699   -3.19870946738377   15.67332312531940
O         3.93698118496647    1.68966780275786    6.07722605776268
H         3.03420666094942    1.50464030109236    6.37028273269498
H         3.98999587721745    2.59430694536332    5.74260537688600

