53
CSD_code = TUZMEH | q = 0 | S = 0 | Stoichiometry = C24H17BrN5O3ReS2 | MND = 6
Re       -3.50877072483238   -0.56242673584469   12.78410401822656
Br       -1.93232193299014   -2.14102496125794   11.48956410391225
S         2.09990899055044    0.97916869813462   17.40652274717698
S        -7.07967366432026   -1.30507034633715    7.52568958926786
O        -5.21592260943021    1.51705867685531   14.29380235799362
O        -1.92450793406047   -1.52901641532109   15.25593930533319
O        -5.45062445629428   -2.91891992957785   13.26134534941627
N        -1.70785687448870    1.30390841347517   16.10920482514399
N        -2.05485439139172    1.38347950601356   14.83793747928371
N        -2.01993682805702    1.00834509053675   12.02445598599232
N        -4.20077352159163    0.02328446546937   10.79823729621905
N        -5.20260384150818   -0.31255264995195    9.99474549508584
C         2.22651277483895    0.91559820758751   19.11529754361749
H         3.19190025338813    0.80662474669410   19.56763676748940
C         1.01524765639374    1.01569464843850   19.72039413093800
H         0.87811687629086    0.99694182498781   20.78674677153396
C        -0.04688791714373    1.14651527840911   18.80363643958322
H        -1.06779969438748    1.24230526602883   19.11942707929040
C         0.36669666525357    1.14473168214346   17.49723978104852
C        -0.35647332323643    1.25339202815737   16.26245919042091
C         0.17886438709854    1.32875785106232   14.98152992910205
H         1.21685330959619    1.29377818544651   14.72146605521240
C        -0.92705447011893    1.40009727367823   14.12554180595244
C        -0.96106380010069    1.50019337406014   12.67607300090391
C         0.08932914704140    2.12740826362089   12.00485170385144
H         0.92998623828544    2.49709351649032   12.56901613141983
C         0.02910979919145    2.27321112648379   10.63223593675121
H         0.83681421210278    2.74267574047925   10.09155253363654
C        -1.09323668355658    1.81767300260634    9.96600670920773
H        -1.19176849554167    1.92173066000801    8.89830536050911
C        -2.09666320264478    1.18811968584457   10.69652753582040
C        -3.29790685855625    0.68129652581731   10.06115262105218
C        -3.74301729004906    0.76181195313140    8.73965248481870
H        -3.24298881611148    1.20755105202098    7.90644392636051
C        -4.96920386741467    0.10712023885039    8.72359511604720
C        -5.82101021643695   -0.10331294898309    7.58860574871438
C        -5.72557411852816    0.55327310347671    6.38717890832333
H        -5.01829047814177    1.34056870440876    6.20090970460239
C        -6.65626826926788    0.10459110385873    5.43344072548756
H        -6.73268013717228    0.50662986585732    4.43941368912471
C        -7.44891605105083   -0.89384413310260    5.90405240537229
H        -8.23555208837901   -1.41810757473809    5.39918671533967
C        -6.36685391964684   -0.98244809524892   10.49670167580375
H        -6.39988558897589   -0.85077450291478   11.57949496041968
H        -6.33200235035626   -2.05029749216593   10.26915430485244
H        -7.26558921127116   -0.55204183114973   10.05520870550352
C        -2.74629683130003    1.23553244121405   17.09437233287290
H        -3.69263299217649    1.23029007405175   16.55619174237459
H        -2.71112347484620    2.10191852112199   17.75731902206270
H        -2.65996893833944    0.31720073226316   17.67674586146602
C        -4.75230934677888   -2.01729155867761   13.10903107115963
C        -2.54405294769088   -1.12190174887343   14.38071910774048
C        -4.58232215185817    0.75405939536810   13.71233621115900

