55
CSD_code = TUZROX | q = 0 | S = 0 | Stoichiometry = C20H28Cl2N4Ru | MND = 9
Ru        4.31061057177546    5.22950055487675    1.11681878365919
Cl        5.31830881059570    5.44319116481860    3.24009724441176
Cl        3.57299407553043    7.44156511846974    1.35160928601516
N         1.16968653839281    4.95202647216703    3.89856706874030
C         1.67442139553870    5.46609491371118    2.80338565672211
H         1.31467186319144    6.37932091477132    2.36865509328567
N         2.69226601621868    4.75273513676729    2.27650366459345
C         2.84540257348166    3.72617247649103    3.11607025092789
N         3.69554872685482    2.72018620501615    3.04765850442997
C         3.68090913671800    1.85627280599130    4.03964658424767
C         2.76727921510571    1.96527957722107    5.11314071771979
H         2.79059537943597    1.24078890655207    5.91089178751117
C         1.85072036272093    2.98435583627870    5.14760115496745
N         1.90562431838827    3.86040196298600    4.11912224499051
C         4.67608147008804    0.74833289938695    3.99944869257936
H         5.17837642628392    0.74176441665930    3.03759770255505
H         4.19496955408531   -0.21157364048085    4.17634813290144
H         5.41947198580485    0.90474520035851    4.78010636978753
C         0.80228406345728    3.17863533922290    6.18533099923733
H         0.46925278561263    4.21667060795335    6.14884306646834
H         1.22574530599517    2.96896058302456    7.16884717640997
C        -0.41051359355152    2.25427342362548    5.95368850842218
H        -0.07074422942805    1.21395792965547    6.01502097595849
C        -1.44657933456765    2.50020557835357    7.04582225974558
H        -2.29175119729517    1.82743976759617    6.92307941746436
H        -1.81203991811347    3.52295859580129    6.99531669706801
H        -1.01818939872284    2.33477353701222    8.03156891336937
C        -1.01855726414472    2.49450110060300    4.57486158668104
H        -1.93265296902359    1.91655604583696    4.46145275843538
H        -0.33168281756644    2.19541208742382    3.78532230671596
H        -1.25490634186243    3.54767560112837    4.44309287422446
C         6.03617265591538    3.81808785331916    0.49441400095952
C         6.25795867975687    5.13348894431302   -0.01189177880201
H         7.20808185749918    5.62220538682389    0.17978880901367
C         5.30248938567664    5.75541683402916   -0.82951632878114
H         5.51772547023053    6.72940339974143   -1.25930745005642
C         4.07431650571263    5.11451878104822   -1.15315498073045
C         3.84275886715678    3.84081757724516   -0.59716665837053
H         2.93677974544371    3.30106476011477   -0.85204936927004
C         4.82951907652106    3.18141725391436    0.18305891923751
H         4.65150257745739    2.16891081173867    0.52254879096498
C         7.06879650475582    3.16284816767287    1.35394011370711
H         6.96866537329627    3.55283686639316    2.37053354542868
H         8.07269089310785    3.39231421629588    1.00140745247278
H         6.93077756721090    2.08453158679454    1.38203866291951
C         3.07977651325564    5.76875374907604   -2.08202496305030
H         3.46342477251653    6.76082738534914   -2.34299071312170
C         1.73110623234367    5.95931574660166   -1.38512624162897
H         1.05109546948500    6.51006687586562   -2.03032800221743
H         1.87815575553289    6.52574356994449   -0.46633770554519
H         1.27553036211107    5.00170531921229   -1.14153509454056
C         2.93366883328153    4.95189899075366   -3.36963123671003
H         2.51726620869926    3.96863027064457   -3.16141432771865
H         3.89963439561578    4.82162437559642   -3.85398181008931
H         2.26860278640249    5.46529015822976   -4.05969011433000

