47
CSD_code = TUZSIS | q = 0 | S = 0 | Stoichiometry = C20H21Cl3N2Ru | MND = 8
C        -2.18911504937195    2.14134468975920    1.98036460822983
C        -1.97853556130218    0.86628323234003    1.45968885838353
H        -1.51180369815944    0.11370373678141    2.07839203571255
C        -2.33090669136148    0.58805680177448    0.15267548272327
H        -2.15872751397998   -0.39270032681287   -0.26139740543581
C        -2.91340567107519    1.57891932534518   -0.62335962894796
C        -3.14457879211121    2.84620686609336   -0.10766238892290
H        -3.60627572967644    3.60379402433711   -0.72081913289811
C        -2.77874822880794    3.13003359461415    1.19406054274616
H        -2.95179263387966    4.10858264262651    1.61918818303809
C        -2.44468472568247    1.88961430120294    4.27449850352077
H        -3.28668538592213    1.22330047315050    4.10799445436119
C        -2.06685231601524    2.28445559110544    5.59925795463617
C        -2.73114006232459    1.87349210669452    6.75706496001453
H        -3.52733281061062    1.15014593274404    6.68049876092555
C        -2.34910505618796    2.40277103861289    7.97246384371016
H        -2.83725219609127    2.09914045933859    8.88540856272985
C        -1.32842639734301    3.34596676601706    7.99284991764374
H        -1.00926807312707    3.80081255089999    8.91649860030392
C        -0.70728069201927    3.69413194230359    6.80517795149435
H         0.09040995347172    4.42522668537636    6.80503993559875
C         0.36699398575645    4.14082025536030    1.79781078571940
H        -0.52780495929348    4.10278298894877    1.17765850852802
C         0.96562455154742    5.52541549613627    1.86857679141216
H         0.13908950962895    6.23734547813436    1.89112894331590
H         1.53983878173653    5.70853922308596    0.95332013180314
C         1.84909317577855    5.76526057942233    3.10504418303774
H         2.88910402546979    5.51246804399460    2.88933061921864
H         1.81344211999046    6.82798068684442    3.35111987080135
C         1.39643760751945    4.97642636942112    4.31300811989985
H         0.95175376922289    5.58300725022354    5.10100983827160
C         1.90410861497021    3.73997743786120    4.62810062848262
H         1.89665775645906    3.40667063657156    5.66722458570343
C         2.91820581528254    3.01173244815706    3.77545577065969
H         3.01723560576650    2.00031728425164    4.17113130586800
H         3.88953643366523    3.50779083495428    3.88726653543730
C         2.54676250803867    2.91937433679613    2.28058044206668
H         3.02251500486453    3.72684344981488    1.71857625265662
H         2.93864859904621    1.97788731525655    1.89266017319744
C         1.05649254752174    2.96545559067207    2.00477359299002
H         0.65148845975213    2.05669603334429    1.55810473121936
N        -1.80273990210607    2.43347640895055    3.29497022229127
N        -1.04428426730467    3.16789863071620    5.63674368796938
Cl       -1.59807596042278    5.35644385529486    3.80057430349549
Cl       -3.36037507895125    1.22920095136112   -2.25476473955354
Cl        0.51429876218452    1.09856965574794    4.34227579258359
Ru       -0.17224013450761    3.39103632437907    3.83023432336078

