47
CSD_code = TUZSUE | q = 0 | S = 0 | Stoichiometry = C20H22Cl2N2Ru | MND = 8
C         5.79592469906962    5.19996419536241    1.81107730084055
C         6.56507636225040    4.14900608933462    2.30425657607747
H         6.08278242494259    3.21437830543067    2.55257424592472
C         7.92674696881058    4.32307875069489    2.47066311315963
H         8.52476606599539    3.50838539806171    2.85039784332545
C         8.52115793773944    5.53388306602326    2.15317633206626
H         9.58384281684461    5.66543810958358    2.29047640205789
C         7.75335961581576    6.57511580724926    1.65824630191187
H         8.21494178684854    7.51857029100952    1.40829798144425
C         6.39190941345981    6.41236610514181    1.47611497121960
H         5.77603357401453    7.21481644340746    1.09600178990780
C         3.93120842696246    4.79939816890314    0.48455975353322
H         4.57045633751545    4.71823127795152   -0.39041954725099
C         2.51978685049842    4.56413983581164    0.39116861199983
C         1.86242836969835    4.21099400664622   -0.78913461379207
H         2.41857925835150    4.17493833723532   -1.71242487884578
C         0.51503684526694    3.91771285865036   -0.74416331664808
H        -0.02202926321325    3.64786504350036   -1.64015784000819
C        -0.13234353898256    3.96699234127488    0.48425940344901
H        -1.18032160536143    3.73017501331264    0.57147440200092
C         0.58431345477233    4.33602427218696    1.61041004076971
H         0.09361008839500    4.37898098289009    2.57369712688304
C         4.26538505105865    6.69888999236937    4.35761623979582
H         5.00360819320399    7.18042389506749    3.71622038183276
C         4.51144942022843    5.40066956533321    4.75231237410074
H         5.44101900607393    4.93505269961865    4.42548087248486
C         3.93549795044382    4.74552658104607    5.98538295076906
H         4.47815134432781    5.11023618278116    6.86507892205246
H         4.12031065488619    3.67339444721039    5.90151693783765
C         2.42346463859318    4.96710890580087    6.16686294285697
H         2.01528557294545    4.11435791888318    6.71233265616041
H         2.23510604678998    5.86066840870622    6.76545427183031
C         1.68365014138499    5.09627135074925    4.85411056770408
H         1.04904188904159    4.24431761882607    4.61281943875118
C         1.43285431747085    6.30588843787923    4.25627050385836
H         0.57735808960736    6.40633385993760    3.58661561833757
C         1.91540211971182    7.62904994127726    4.80565753460473
H         1.31561000053658    7.88101713557088    5.68823216859978
H         1.72376450544922    8.38995400125953    4.04822284722761
C         3.41536635136790    7.66134356425849    5.16392620402559
H         3.78292183231247    8.67373176964106    4.98891506520210
H         3.56017680973105    7.44117011327571    6.22439280971895
N         4.40916020138043    5.03765672753301    1.65809714908962
N         1.87157021355831    4.64659897843711    1.57373969254118
Cl        2.76503621165075    7.39428083977723    1.79126909706717
Cl        3.29723029381078    2.93104562341910    3.42013965680796
Ru        3.07051225473835    5.32535674167980    3.05648109671730

