77
CSD_code = TUZXUJ | q = 0 | S = 0 | Stoichiometry = C35H32CoN5O4 | MND = 6
Co        2.42409982512232    2.45839199024174    2.64783576897305
N         3.17718944653552    2.67625513699461    4.35207751003107
O         4.50246944319334    2.74844554078359    4.62457680632471
H         4.95848215885751    2.66301188205623    3.68848551993390
C         2.33278853865156    2.73555426099993    5.33227629675848
C         0.95503945357633    2.62786387101303    4.91372947896140
N         0.82270837044693    2.43370315069147    3.62821304648492
O        -0.33587163458944    2.37205330134789    3.06775895835530
N         4.03632584252973    2.49190034170277    1.66901322564954
O         5.19233891701778    2.64858561255020    2.21575268330800
C         3.89990102988793    2.37883527085181    0.37355141593375
C         2.52442957151678    2.24978266368795   -0.04580122582491
N         1.68055033044804    2.23093589545039    0.93603638488324
O         0.35511477275336    2.15331146764385    0.66306870601453
H        -0.09674447249278    2.18752798655549    1.60430768608987
C         2.71815447762405    2.84815701261804    6.74675205480942
C         2.16591264630239    1.97796874755410    7.68433257600322
H         1.46625620490276    1.22034770114353    7.36442886276561
C         2.52269213528017    2.07402779307551    9.01538331064737
H         2.09274385692302    1.39334223925819    9.73513213144919
C         3.42706762637630    3.03957724135525    9.42660493538099
H         3.70091999834901    3.11545006063041   10.46853303880161
C         3.98235081177652    3.90382877572149    8.49842837394521
H         4.69052955827706    4.65545429745108    8.81484282162591
C         3.63545266051717    3.80810511214504    7.16356690648207
H         4.06868875426827    4.48335917736937    6.44163725275642
C        -0.17465642203404    2.77808208263837    5.84110767921105
C        -1.26162767351372    1.91014541855353    5.77432713667374
H        -1.26959825022575    1.12300845038084    5.03650244644980
C        -2.32195369958431    2.05326128177824    6.64951802141411
H        -3.15797475640274    1.37169709024040    6.59300376714803
C        -2.31410177861235    3.06388646997621    7.59580357578516
H        -3.14260691421775    3.17295181382407    8.28016152244883
C        -1.24290817516529    3.94032715238143    7.65774291212011
H        -1.23651214793186    4.73683695030650    8.38763110004929
C        -0.18015689743024    3.80292343479028    6.78606856030535
H         0.64595473814102    4.49789319694237    6.82862773696877
C         5.02313042640599    2.34643399751308   -0.57425799337232
C         5.06549412781068    1.37822111605414   -1.57642193084530
H         4.27578003714989    0.64491501004711   -1.64595573745091
C         6.11996191922462    1.34422860109981   -2.46777486327621
H         6.14298809080876    0.58984616011303   -3.24059131474663
C         7.14653605546999    2.26956624087554   -2.37019618708636
H         7.96943851916357    2.24106885825612   -3.06923940776546
C         7.11788353797033    3.22492293976543   -1.36890749623720
H         7.91976373997490    3.94379928628230   -1.28393235713136
C         6.06502525313164    3.26445522331669   -0.47376220909592
H         6.04698414389595    4.00966040873933    0.30651085062705
C         2.13425879637856    2.20799375045324   -1.46321267118760
C         1.25093085046550    1.23807247677430   -1.92765833614546
H         0.85008128727854    0.50898499023883   -1.24080699784687
C         0.90003196266063    1.20314706876431   -3.26446617951012
H         0.22009228056104    0.44290266743214   -3.61933370424429
C         1.41613619901176    2.13817020479493   -4.14564670181117
H         1.14027906466231    2.10892869499791   -5.18940786662100
C         2.28420349271444    3.11482148520489   -3.68528229736273
H         2.68337453380291    3.85030167324659   -4.36813175075165
C         2.64483054383234    3.15137991667680   -2.35211061955790
H         3.31632412267388    3.91734991010333   -1.99268470840935
C         2.47930231376669    0.45578471766014    2.74859446407903
H         1.46399800561221    0.10207068846356    2.54473403053732
H         3.11799892022149    0.10765681144946    1.93131299444598
C         2.96262539991098   -0.18973279618146    4.03630631738203
H         3.97985796967601    0.10580972381178    4.28294482332655
H         2.95814528311566   -1.27505650161818    3.90895331137678
H         2.31474384277445    0.04493544789081    4.87875139054506
N         2.28078847077492    4.54972099369280    2.45270866214999
C         3.34420489887773    5.32817177255089    2.64338086213985
H         4.27256293341640    4.83894397533770    2.90592365961927
C         3.30095867987260    6.70517431563765    2.51256896599092
H         4.19257209877054    7.28895383140195    2.67849439557487
C         2.10212445585356    7.30824982038771    2.16748301960787
H         2.03313015148365    8.37995178622757    2.05593575973301
C         0.99509192639707    6.49956639224282    1.97046071838669
H         0.03786831393058    6.91710121925514    1.70200361685593
C         1.12910397671020    5.13007477576330    2.12384208800115
H         0.27254502671460    4.48516247256765    1.98225241495602

