52
CSD_code = TUZYAO | q = 0 | S = 0 | Stoichiometry = C15H26N2O8Pt | MND = 6
Pt        9.41810189702035   11.99947515996800    9.31140875364150
N         7.82401708070650   13.13682072171941    8.59246350668999
H         7.47657535458379   13.74736129319106    9.33443285187893
H         8.29134922341406   13.73103734577947    7.85902633840563
N         7.98672333543068   11.02547381769422   10.47523504934445
H         8.48105298489558   10.28428576591442   10.97748162121491
H         7.69961078518557   11.75133839073364   11.15974997431050
O        10.74727107587564   10.78391070068936   10.24786176857593
O        11.64883730668324    8.81543310376258   10.49712008659422
O         9.08294447343807   10.57663816258644    7.90495213579211
O         9.42309184800175    8.66623191221734    6.93413955350399
O        10.88764707054193   12.90826724298178    8.19423531868616
O         9.60583276889842   14.37166191975873    7.10163526662970
O         9.86382959191479   13.51928786011757   10.66511553909180
O         7.90696202390605   13.43963913994544   11.69159413889408
C         6.72835968596249   12.34526320546229    8.03575303675172
H         7.15427516104174   11.66404940187731    7.29462235664596
H         6.02671315985279   13.01461109648265    7.52438160573585
C         5.93979679374458   11.53044860463410    9.07917204527869
C         6.82563306062228   10.47446739170844    9.76905334244602
H         6.20244359617195    9.92442627331808   10.48390542097722
H         7.18326328826550    9.76874400117638    9.01420263891705
C         5.27617499381005   12.44995088562656   10.10882996800884
H         4.65177163178008   13.18375100607772    9.60460412461943
H         5.99457467873859   12.97911595112271   10.72765522922329
H         4.63689360245204   11.86751528343057   10.76778363835587
C         4.84730071902330   10.76642779780705    8.31966509054391
H         5.28432901964999   10.11805002120330    7.56533716150052
H         4.17148595860952   11.45995457720976    7.82689846964638
H         4.26455905534588   10.15413619422433    9.00252830457954
C        11.22299794068842    9.67803021217950    9.75939003620205
C        11.24850821972239    9.50484206595543    8.23888705279425
C         9.84531584125660    9.55006265511106    7.64865585520909
C        12.08317940464091    8.29885776351695    7.77796267870678
H        12.41674908442287    7.66996447677735    8.60009722417514
H        11.55827083341054    7.69502495360533    7.04094269740555
C        13.14143718789937    9.24559128188365    7.19499673841622
H        13.34011091695792    9.11446189063602    6.13342936269663
H        14.08374627604551    9.23112425961666    7.73797558106738
C        12.25856851942750   10.45249836011441    7.53834276810059
H        11.83556221565216   10.95589567272938    6.67045214094837
H        12.70303894979842   11.19447661951985    8.19806736786046
C        10.69253343887750   13.86970530294593    7.38355692295132
C        11.96542518723568   14.36946698098970    6.72122962155746
H        12.80780071597579   14.24523100440721    7.39371254543038
H        11.84021940123576   15.41037614366447    6.43907689636099
H        12.13856184624881   13.77734831968498    5.82495676273330
C         9.05213232414031   13.88466922757633   11.57027878318045
C         9.58027816143039   14.94994837260343   12.50769490340549
H        10.40231933923307   14.52791856450582   13.08047360180093
H         8.78908163013381   15.27674221588780   13.17554845079992
H         9.96384133999863   15.78568942766977   11.92892767171285

