67
CSD_code = TUZYIW | q = 0 | S = 0 | Stoichiometry = C30H28N2NiO4S2 | MND = 4
Ni        8.33376997820266   18.80744097125851    9.34177908389531
S         9.14769424996791   18.36003022246294    7.36381577661813
S         7.47182302652055   16.81709675944786    9.60647742504493
O        10.20796611261072   18.38024104933239   10.75512665142870
O        10.03398621847103   22.80075244534431   12.36438569839640
O         6.47321770096897   20.03852192443471    8.49566216960661
O         6.80499992157533   23.05000425674181   12.09851304278308
N         9.41377192937081   20.47065578521450    9.27056915528558
N         7.29632785016517   19.33207552874954   10.94984338285154
C         9.28226171863892   20.03787410584221    6.95448486824130
C         9.38145016315357   20.99838050186495    7.98351998981485
C         9.44394468638015   22.35270339408735    7.65586322327420
C         9.42671490632888   22.74863764669556    6.33413345976898
C         9.37410017835123   21.79834674638189    5.31857774784934
C         9.30204216017339   20.45658747875166    5.62219736841891
C         9.87948273870218   21.12756755231915   10.27194955106918
C        10.08665522868792   20.58379728101303   11.59157135870486
C        10.26759699825051   19.20153867884281   11.83104546986225
C        10.52972978405708   18.75308717260116   13.12129896883063
C        10.59238836393238   19.65333972303631   14.16635369504301
C        10.43094806280402   21.01213234690934   13.95603964748315
C        10.19073015464629   21.48427438311374   12.67422567413552
C        10.68534615045164   17.05287850040985   10.88083966531647
C        10.22340353243873   23.75650828162058   13.37931657179761
C         7.37169631540863   17.00374655192814   11.32574384154302
C         7.31714411518510   18.29944483377576   11.88211590383154
C         7.28227459758053   18.45125821783334   13.26820311748835
C         7.28317583231979   17.34155642554409   14.08829376564922
C         7.29172603872300   16.06327286097315   13.53772527688428
C         7.33608689958466   15.89282063168154   12.17148721990615
C         6.86881735438051   20.50958959869577   11.23603550155059
C         6.67186441717847   21.57090962582421   10.27952194887513
C         6.45595609122090   21.33076443428556    8.90238957013568
C         6.20427726375304   22.39810887096801    8.04680755872954
C         6.18682059092045   23.68835022024890    8.53821881125511
C         6.38450006495535   23.94857697494269    9.88352171771902
C         6.61476031852363   22.89778440593588   10.75901516968366
C         5.96246946495886   19.71783059760464    7.21431325916301
C         6.66737838067256   24.33505673260330   12.65444963589020
H         9.46156485731946   23.09989078929014    8.43579237527844
H         9.44968672709323   23.79992920130368    6.08905650868024
H         9.37201969591462   22.11641500939919    4.28614753757458
H         9.24151755318589   19.71023883469406    4.84466609800920
H        10.18179414513171   22.16914074248367   10.16192260336462
H        10.66083461742004   17.70283334091853   13.32055002925593
H        10.77538295780684   19.29174775041175   15.16675167619871
H        10.49461506398050   21.68559178036334   14.79476405253953
H        10.63300278576571   16.63494209415898    9.87509809155487
H        11.71923557729739   17.04603780834096   11.23873659383028
H        10.05471921874429   16.45658769168477   11.54731393069151
H        10.12221043539058   24.72612854640304   12.89359297294294
H         9.46699071000522   23.66523171205550   14.16461267510335
H        11.22115649315348   23.67972595776186   13.82272988574350
H         7.29865164949184   19.43818812218443   13.70704217227734
H         7.28162775928188   17.46741265075618   15.16065318272652
H         7.28122345048781   15.19975934609136   14.18681033540984
H         7.36234889403930   14.90726523746765   11.73190251132144
H         6.59364603062601   20.76850805640315   12.25858777188008
H         6.04629940016922   22.23170470104996    6.99453592220870
H         6.01135712089385   24.51062323637730    7.86137891292350
H         6.35619585029172   24.96781319675341   10.23197070519570
H         5.98607862196129   18.62892385989358    7.16270933304054
H         4.93513056779073   20.07830433139326    7.10613387359707
H         6.58831782739290   20.12570874081353    6.41469821402886
H         6.79014329025302   24.20591037006432   13.72895983077428
H         7.43628111097098   25.01896972944632   12.28262245601484
H         5.67686802794290   24.75572344274668   12.45452780395638

