48
CSD_code = TZBICA | q = 1 | S = 0 | Stoichiometry = C17H25CuN3S2(1+) | MND = 5
Cu        1.74849319368411    1.19110661132703    2.80682582858076
S         1.59849626432068    2.96335387074900    4.33143904628609
S         2.06216710140562   -0.39866423633573    4.78715292685296
C         2.92076580038591    4.17391774994739    3.99351583467112
C         4.27005295448195    3.57612784470852    3.62929565836334
C         4.39208409358752    3.17813783878305    2.16218319408207
N         3.58363536317938    2.03879912998860    1.80658130810544
C         3.65257758595855    1.58792122323989    0.60843144178037
C         2.77938816349368    0.45425706875699    0.28648901778447
N         1.66028323675000    0.39444855870379    1.00839932832490
C         0.77372903800232   -0.57792106415829    0.79531784740565
C        -0.38321680833009   -0.57196399117367    1.70079063871213
N        -0.19394731120802    0.00385580573411    2.82467616353235
C        -1.20743836152821   -0.01558290627376    3.84302329039995
C        -0.62913435464744    0.40414808839222    5.19164096964423
C         0.46861476288654   -0.53028300873207    5.68285395390747
C         2.92426822989505    0.87765395255609    5.76570819659205
C         2.20972394051411    2.21234727729530    5.89302582309611
C         4.52988644625552    2.15486833507696   -0.45761059107596
C         3.07077953064181   -0.49914598450680   -0.68678830384039
C         2.15918337733626   -1.51773926768880   -0.91053840285784
C         0.98531484302018   -1.55493691945101   -0.17355259655693
C        -1.64892469960617   -1.25004880720230    1.28857824252768
H         2.99380144707308    4.79271059355624    4.88801785112396
H         2.52776310150315    4.78548050345782    3.18136841669769
H         4.48939612657179    2.71421799147372    4.25898984132776
H         5.03464364313699    4.33095536945698    3.82872149994799
H         5.44511715871441    2.94943832129315    1.95410416767809
H         4.12125876038116    4.03894861183835    1.53519595452538
H        -2.01661739695788    0.67464328362386    3.57349206925330
H        -1.64316221696255   -1.01899006057311    3.92672055140690
H        -0.25912575431980    1.42511905782669    5.10236774546224
H        -1.43563880116712    0.39869913285058    5.92836048636789
H         0.69359428577843   -0.36097673555971    6.73460951687372
H         0.17019434740602   -1.57057930449168    5.55566300309643
H         3.88602556282148    0.97511865636374    5.26297645585447
H         3.09509338475348    0.46967694425075    6.76394107275772
H         1.32968098195884    2.10955130617693    6.52705506166501
H         2.87483836701401    2.94308446005740    6.35281928447171
H         4.32879534164438    1.71137933242130   -1.42640476185418
H         5.57924932173448    1.99868458130885   -0.20248339576043
H         4.37386499023805    3.23129518401026   -0.53147813778663
H         3.99630977829158   -0.46587228072506   -1.23782331764407
H         2.36096756675906   -2.27628159964527   -1.65071452463262
H         0.26948855773281   -2.34450709189560   -0.33185918028455
H        -1.68716839112550   -1.40742503907659    0.21579514370139
H        -2.50559063303000   -0.64596561824362    1.58334363995830
H        -1.73766192042362   -2.21506276948944    1.78988273947626

