52
CSD_code = UBAKIU | q = 0 | S = 0 | Stoichiometry = C17H27Cl3N4Zn | MND = 4
Zn        8.14131771360941   13.17323613054747    4.71636815183501
Cl        5.97003639214354   13.66659796525051    5.33104403580084
Cl        8.40968294347823   10.92228987294337    4.84718477318235
Cl        9.71629691135247   14.71808518439903    5.00135618526273
N         4.65313518144293   12.10244804457523    2.73831758852650
H         4.37211667901487   12.84998401864500    2.11914572445204
N         3.13705989220994   13.06935029054785    4.18301346614347
N         4.12357320307969   11.02263959637066    4.72626719840791
N         7.71595118457032   13.40042991619431    2.53219789196191
C         4.02141567757218   12.09187399955886    3.93519472142977
C         1.88148433052763   12.85968349123489    4.87878920397125
H         1.80908237747515   11.82555553757322    5.20763613107782
H         1.07790041760958   13.03901161094402    4.14977412141041
C         1.69741403231734   13.82992832876842    6.04218363104966
H         2.47532243458417   13.66791657577053    6.78757554854691
H         0.72801395573590   13.64953775777357    6.50858358511724
C         1.79373455772446   15.25855293099323    5.52054140366754
H         0.97125464405880   15.45531429207383    4.82749991814129
H         1.71530801875427   15.96695644464513    6.34504053960347
C         3.12908795134438   15.43243931884182    4.81012186473198
H         3.94865259867173   15.26931730804388    5.50971935484403
H         3.21810621452793   16.43773095865902    4.39803881761515
C         3.29055911470414   14.42110771638862    3.67497519289991
H         2.54074928968101   14.60485474945530    2.89312157252754
H         4.29388470512623   14.54024467146212    3.26908812732692
C         4.31165488466695    9.67159536903021    4.22292099748788
H         4.39962330183061    9.69696016177531    3.13836273062517
H         3.39564221209385    9.11612575626171    4.47584977385273
C         5.49915767982672    8.95652441972879    4.86001426954835
H         6.43533382526063    9.44614275213432    4.59202078296014
H         5.52836381560690    7.92953312793374    4.49394844826770
C         5.35762585316698    8.98951797563009    6.37684356967124
H         4.47071636490476    8.43043302189277    6.69007274974189
H         6.23152812751212    8.53099486470819    6.83731765173697
C         5.24343515703764   10.44266789772398    6.81479145943391
H         6.14298035603321   10.97666685570410    6.51053024483415
H         5.14825120511246   10.51860147280680    7.89825559596272
C         4.02776697913533   11.10933858531290    6.17294525068482
H         3.11441504788173   10.61030147954144    6.52242846398504
H         4.01739299004365   12.16217931810367    6.44604021742066
C         6.01802435284444   11.64204966511029    2.50608029215886
H         6.00321696900540   10.75915181046823    1.85643196600773
H         6.48743661166233   11.37893846972489    3.45517425094938
C         6.81576648140702   12.72438971157409    1.82541120823632
C         6.58039019049443   13.01064815974869    0.48381559512484
H         5.84830017506141   12.43738285685693   -0.06574507354069
C         7.30233777944791   14.01806816713981   -0.13357822418524
H         7.13903132420432   14.25129496205322   -1.17536251899626
C         8.23990208680595   14.71105449402616    0.61411000937191
H         8.82957968450701   15.50236496219395    0.18080165581903
C         8.41273747802967   14.36453596791109    1.94407226728601
H         9.12964864512118   14.87115100323799    2.57596761603044

