75
CSD_code = UBAMUI | q = 0 | S = 0 | Stoichiometry = C28H26LaN9O11 | MND = 12
C         0.40668151536751    0.29611432806169    5.88134851511572
H         0.68020441398975   -0.52666839205812    5.23457133389769
C         1.33330642852286    0.86933951765515    6.74452336126536
H         2.34619072967790    0.50009816075928    6.77850356397984
C         0.92768790573471    1.91720010968907    7.55329277680637
H         1.62100151265069    2.40165579399586    8.22566823719239
C        -0.39276633479749    2.32715786218931    7.49552888649252
H        -0.75135706807493    3.13574137958729    8.11355646487189
C        -1.25654321141695    1.68085795711813    6.61134028191735
C        -2.68010750073288    2.02883152387622    6.56154924265743
C        -3.26131954905738    2.83899823997517    7.65635305893766
C        -3.27115921310504    2.36009703253027    8.96362365237340
H        -2.84692847146359    1.39018258062602    9.17703091720302
C        -3.83222864893208    3.12164714577114    9.97282555344884
H        -3.84052372992103    2.74708786915958   10.98542753622091
C        -4.37813344511439    4.36331026670700    9.68758126680364
H        -4.81076890270693    4.95662594275781   10.47926058724401
C        -4.36358629200363    4.84549582113651    8.38901697541150
H        -4.78057239370430    5.81636962475093    8.16688154031612
C        -3.81364991986985    4.08662213593374    7.37025532592569
H        -3.76813896400738    4.46293114626961    6.35779122233703
C        -5.40167296560342    1.17773334403348    4.49626750355016
C        -6.88214775644058    1.44860857382387    4.58233452493281
H        -7.27469000106398    1.10908503576495    5.53803048555500
H        -7.38609567425880    0.92038207766145    3.77923076701403
H        -7.06979815713172    2.51564191031735    4.48453960973483
N        -0.85010967598948    0.69852513047523    5.79926208893544
N        -3.35317302467796    1.58769516703586    5.56422932055475
N        -4.68212295737340    1.78154527267052    5.48918172929810
N        -2.50822885837546    3.00161633135758    3.68693333986818
N        -2.48186547512050   -1.52491043016433    1.36253872342046
O        -4.88257676655037    0.50239008371709    3.63226421421646
O        -3.29964044464270    2.45177354101806    2.92100681461587
O        -2.82498087450183    4.01636797894647    4.26188427549823
O        -1.42634289663233   -0.88779832587466    1.43279809149151
O        -2.77155785191254   -2.11979473815075    0.35892882656699
O        -3.22457654716368   -1.54797403171523    2.34724740934452
La       -2.25704443909663    0.28286557182068    3.30933999065002
H        -5.14961239889515    2.30946853936761    6.22683063487692
O        -1.38087393305985    2.53085917361271    3.82125292404955
C        -4.95710943962044    0.28745520476733    0.78534741937677
H        -5.18793321441675   -0.59364406667261    1.36910227820564
C        -5.93111499690726    0.92487242942632    0.02544588214141
H        -6.94335231447628    0.55241185650418    0.01327673742812
C        -5.57270824265507    2.04052509048734   -0.71179477759650
H        -6.30253482944150    2.57346923465301   -1.30415494398373
C        -4.25259021268632    2.45653805831272   -0.68868123530070
H        -3.93183496980541    3.31652383276784   -1.25686160198132
C        -3.34290096652531    1.74884686252500    0.09575267674470
C        -1.91534234501112    2.09696349653040    0.10938095579224
C        -1.36293912949733    2.84745440693260   -1.04122663597082
C        -1.53146967524455    2.36452363386263   -2.33723188927235
H        -2.06453201453640    1.43820823886804   -2.49008323055147
C        -1.00562026980617    3.05936013194738   -3.41084117912661
H        -1.13697267948544    2.67782805072148   -4.41209111672316
C        -0.31551317791108    4.24372327456528   -3.20526580597131
H         0.08917210520798    4.78669870354920   -4.04594483500933
C        -0.14933187147165    4.73297394505417   -1.92037743154993
H         0.38109272205727    5.65925986894039   -1.75716469133787
C        -0.66391815131890    4.03707924638172   -0.84037778080431
H        -0.55658932912842    4.43066205783069    0.16102082295759
C         0.85092780046933    1.21701670029298    2.10493739029526
C         2.33886196175412    1.36606212300153    1.90973281018586
H         2.65380317702453    0.77383493622899    1.05287850765680
H         2.85092724992674    1.00114536369030    2.79442153356900
H         2.60601370155067    2.40548249135690    1.73601143923079
N        -3.70106708610534    0.69625978943253    0.83706176370724
N        -1.22303884491094    1.67944490100149    1.10314221634245
N         0.11300942096666    1.82774507861994    1.12667061170641
N        -1.93674778611609   -1.57336640081462    5.18718138710750
O         0.34447034022923    0.62519691654371    3.03305164741598
O        -3.01085263539729   -0.96753815600991    5.13666318408697
O        -1.62784895702359   -2.19387045077763    6.16914891416406
O        -1.19182920642678   -1.53534372813431    4.20410030482794
H         0.58103570417937    2.24322062543636    0.31953709764621

