45
CSD_code = UBARUN | q = 0 | S = 0 | Stoichiometry = C19H24OTi | MND = 12
Ti        9.12129167781609    6.71255741516724    4.49668501369964
O        10.48795149685236    6.13887637650812    5.22779374635662
C        10.06634995177062    8.46721416047699    3.65691137250515
C        11.60197078685510    5.69223315469995    5.91299981510703
C         8.30283551222431    7.78055803438036    6.53361129181729
H         8.88722965233241    8.30467203731466    7.28115569416728
C         9.09102532273392    8.66428527074593    2.60331103941904
H         8.13313073345769    9.15696840003100    2.71186582870239
C        11.24996888007861    7.98026748057216    2.98382422825387
H        12.21064269524078    7.83343344274262    3.45576065810082
C        10.96981354671306    7.81354805436186    1.65506185316494
H        11.64042051125957    7.43861627698123    0.90022729609687
C         9.63592295488289    8.23796066507020    1.41924431317539
H         9.15328051134793    8.23916858181893    0.45607645646025
C         7.64738014533998    8.37628082828197    5.43488439312760
H         7.62055236100458    9.43844183463463    5.22385785119677
C         6.95218084880647    4.59380710770855    2.68362853324624
H         5.91521403584256    4.53539256198289    2.39760132969190
C         7.85590477558650    5.54128145465091    2.27672101756332
H         7.68111265951087    6.31147911122577    1.53938474859935
C         9.12572376263945    5.27814456249160    2.91434548177062
H        10.07081115889541    5.45133185877909    2.39347890252072
C         7.60742992456960    3.68426412456031    3.55415963835817
H         7.14204707134010    2.83272362695745    4.02317327022961
C         6.89191722366159    7.38370902463188    4.78150259043142
H         6.17785658939563    7.54838111849997    3.98412675592772
C         8.91654488461547    4.07005862585935    3.68525336809204
H         9.69305762009610    3.52340104941427    4.20441694869169
C         7.94484071229935    6.42084153791523    6.56591198767546
H         8.19318901399137    5.71146400577622    7.34502106454183
C         7.07732319420399    6.17279484645266    5.47978317719170
H         6.52903089397048    5.25567023715302    5.31299076492054
C        12.31137972588745    6.90409884489610    6.54449955662478
H        12.66909433364640    7.57467979210745    5.76604806490458
H        13.15327107347304    6.57906916931051    7.14961421358452
H        11.60735254587267    7.44800271154218    7.17394567344340
C        11.15816107163379    4.71770886936630    7.02033946953357
H        10.60158289399242    5.25343008160781    7.78698024256330
H        12.02367476479106    4.24655435029418    7.47824839468609
H        10.51578630503949    3.94812296260310    6.59371904227208
C        12.54252058544284    4.97275980856582    4.92967754655671
H        12.05668161805070    4.08158548041307    4.53754231932642
H        13.46534152345987    4.68633537677648    5.42688137171763
H        12.77272919756057    5.63094093697199    4.09397220809710
H        10.16497325179339    9.16258474770394    4.49496146588019

