100
CSD_code = UBATOG | q = 1 | S = 0 | Stoichiometry = C46H50IP2Ru(1+) | MND = 9
Ru        8.70683015198188    2.48952594860674    1.38145225096329
I        10.04400314572725    0.18255362069612    1.74211970397744
P         6.79163520737066    1.19530353762722    1.32085325450691
P         8.50897732356348    2.71188609256915    3.69781469660202
C        10.08608679071186    2.74190905737013   -0.59832813053235
C        10.58476488683967    3.53122079692957    0.47439664839253
C         9.79260501217445    4.51141306441846    1.08311337008387
C         8.44915436983227    4.71967123359960    0.67258259976931
C         7.92188400042954    3.84026177019951   -0.29160475366566
C         8.73979852765090    2.88671996095528   -0.94425997650396
C        11.04004843704969    1.88470430345290   -1.39058302360711
C        10.36955668898824    0.73885325376674   -2.14546774817795
C        11.78023840123947    2.80809948078239   -2.36926627808297
C         7.69588100465266    5.94224861034016    1.09806240132693
C         6.39174888709165    0.12000184712148    2.78929753293024
C         7.51566046937472    1.47107978802498    4.68252467400422
C         6.19262903972340    1.06325133767257    3.99737268545430
C         5.18330468046661   -0.76314127328219    2.47507456116875
C         8.37013420769380    0.28849431340918    5.14416328214504
C         5.21846461723021    0.51427298024847    5.06355406843368
C         6.39358774429324    0.63229257550319   -1.36398496124982
C         6.47662906911889   -0.13360940415623   -2.51183565613511
C         6.98031814194941   -1.42335264662217   -2.45106979341982
C         7.39159344347249   -1.94724529410012   -1.23651379004163
C         7.30922315668801   -1.18754120451879   -0.08312092102415
C         6.80679257233650    0.11125021423962   -0.13740944657692
C         5.21726098054211    3.43417887163468    1.68301957097732
C         4.05454866315602    4.18162630139684    1.64418239248899
C         2.92157045836704    3.65884036699211    1.04202654078373
C         2.95749233116686    2.39112749833125    0.48202051352981
C         4.11662969943467    1.63687550616221    0.52618351968096
C         5.25892417848171    2.15730203876042    1.13043981493882
C        11.31524769337263    2.68703261691111    4.03236441518508
C        12.47249100146234    2.78685393403577    4.78638869617596
C        12.39384312997141    2.98874488707106    6.15227177118508
C        11.15373545004025    3.10333919017445    6.76348813030487
C         9.99786301905175    3.00550640705884    6.01534001659526
C        10.07129539478676    2.77797387045446    4.63944024088314
C         6.53292430260068    4.53787778508273    4.65621974838127
C         6.12825316350717    5.78188859178915    5.10937049926134
C         7.02528020678007    6.83390219156121    5.17193535734722
C         8.34050408487336    6.63499247568327    4.78224203085709
C         8.74816114443849    5.39366158013562    4.33043428003675
C         7.85054426971502    4.32611639821411    4.26343790423069
C         3.89656506299290    2.53844916676740    5.71360748479007
C         3.56594707991617    3.55310260353748    6.59406188976869
C         4.19066754207374    3.63183365640154    7.82756313562641
C         5.13574718052245    2.68405978235124    8.17948426510285
C         5.46225715169253    1.66657267197043    7.29895604890886
C         4.85074986169355    1.58530464022739    6.05437276583764
H        11.63732125265233    3.45472794092868    0.73139910829858
H        10.24329171427824    5.20418819065171    1.78676633858462
H         6.91228968735659    4.00662134211182   -0.65812022890219
H         8.33644883812901    2.33163614333069   -1.78155679443273
H        11.77535407615718    1.45353978275536   -0.70138117502544
H         9.74778570098396    0.13975064897732   -1.48303008998600
H        11.13542507510384    0.08920363588407   -2.55919480281035
H         9.76095042186298    1.10445740284336   -2.97029078691456
H        11.07993194795353    3.26478381524364   -3.06677946571450
H        12.50247583757044    2.22880383584633   -2.93724410318050
H        12.31142705576701    3.59944421294352   -1.84408035543519
H         7.81377986776158    6.14552607830775    2.16097637096295
H         6.63652353749359    5.85848762818727    0.86498295415030
H         8.09520944166598    6.79926358668679    0.55174140683404
H         7.25767873327385   -0.52798018316066    2.95995506487001
H         7.22895643845281    2.04311383618533    5.57789846025556
H         5.72116061419931    1.97617174741743    3.60925922833132
H         5.06043851678801   -1.51698563829540    3.24853657121321
H         5.32837916481805   -1.28378431981124    1.53033306490015
H         4.26842691055762   -0.17870089013101    2.40476213846274
H         9.10862940066568    0.61599733458323    5.87124645376097
H         8.90648570796807   -0.18707218568023    4.32964073064847
H         7.74555332177672   -0.46134043311915    5.62180442981239
H         4.30231136463836    0.18362928667331    4.57763374257728
H         5.65806513760638   -0.34017660920054    5.57702675900498
H         5.99129551677009    1.63648014664895   -1.41468104115928
H         6.14930368070119    0.27743925250447   -3.45538623769550
H         7.05133255214429   -2.01703709842697   -3.34897138877772
H         7.78562377484532   -2.95002303206085   -1.18346351615771
H         7.64802841801129   -1.60602411910412    0.85240048038203
H         6.11010838406180    3.83682384039163    2.14912128702053
H         4.03369030012274    5.16776242198034    2.08452543728165
H         2.01225182471557    4.23861012266825    1.00637057125562
H         2.07552349294592    1.98463947611364    0.01094050225537
H         4.13528476176192    0.65122360946795    0.08447033287780
H        11.38853408612063    2.52862127913787    2.96667775058186
H        13.43419394006289    2.70319222016995    4.30393815836774
H        13.29444855660327    3.06252174773986    6.74165944854217
H        11.08858243209730    3.27203044259035    7.82766219758533
H         9.03503195600389    3.11587649424390    6.49562104391929
H         5.81153326197443    3.73713879848431    4.64139594262215
H         5.10552632139742    5.91828185788158    5.42599810387596
H         6.70718852076557    7.80038523932344    5.53047113635732
H         9.05193591505336    7.44528459956421    4.83713649052704
H         9.78334487946594    5.23988254620798    4.05602926861911
H         3.40123399210902    2.47747055158143    4.75295382679210
H         2.81368773046450    4.27813875462573    6.32004730062135
H         3.93296176127910    4.42164538584164    8.51636500113367
H         5.61591789177028    2.73199085665803    9.14518122946163
H         6.18858325501789    0.92035141799417    7.58876336984104

