87
CSD_code = UBATEW | q = 1 | S = 0 | Stoichiometry = C31H53OsP2(1+) | MND = 9
Os        9.29455722717780    9.62956153186674    8.90165158446017
C        10.99314233616843    9.54307251853541    9.99107767494280
C        11.78468445618086    9.64833368433586   10.90386539959800
C        12.76619697400982    9.74777462766580   11.92406101619070
C        12.40429245543054   10.18442767678912   13.19836163671722
C        13.36050643854021   10.29575372488372   14.18899055480516
C        14.68165295657805    9.97397455657274   13.92189444360872
C        15.04591767388661    9.53990190315341   12.65727303245929
C        14.09782025081083    9.42614083278061   11.65917710502112
C         8.32543550871191   10.40404849147894   10.90234023890629
C         7.81771074447133    9.12041661010925   10.62195985298274
C         7.11484679145684    9.18627393898601    9.38829117914122
C         7.19212543143172   10.51847284093457    8.91534231395997
C         7.94339739379447   11.27098042529729    9.85359568221014
P        10.73857170073967   11.30637281006955    7.87300092605174
C         9.87811318882482   12.42333543530303    6.63786053958163
C         8.92907224221116   13.44946451794750    7.24719788495720
C         9.13240636902789   11.62142572512119    5.57458703612765
C        11.71903898559738   12.44281549658428    8.99957776166382
C        10.93896514210874   12.93021825380439   10.21634971490530
C        12.36913654642410   13.62016431028339    8.27767319684164
C        12.04770739515794   10.48216889512997    6.79129108666888
C        13.25988888492946   10.06257864249181    7.62270941604506
C        12.53182221676673   11.22716900931779    5.54646515465149
P         9.90636356535699    7.30556427499837    8.38507014259077
C         9.05042025593255    6.66169379856531    6.84634740171292
C         9.48089260936614    7.42101223897510    5.59307950502952
C         7.52910220808599    6.67089986063172    6.93492299467990
C        11.69527498934121    6.84023875185156    8.01506583985573
C        11.90855675290823    5.61059595105344    7.12874091124331
C        12.53758219839579    6.67952661547920    9.27941143666839
C         9.24880339475549    6.16711652836584    9.72355319388694
C         9.85514650411012    6.44869593376527   11.09963550355468
C         9.34193052908806    4.67467680811801    9.41520492034905
H         9.11722561739589    9.49989001762912    7.37914105295694
H        11.37302856655837   10.43392204405131   13.40529514300802
H        13.07477107671970   10.63454351029730   15.17372698430867
H        15.42590566096524   10.06119187627212   14.69841496648818
H        16.07487114381897    9.28804568289040   12.44836652340909
H        14.38003900432354    9.08951117717330   10.67185943494068
H         8.81157431753648   10.69837338772283   11.81958946964783
H         7.81227704694406    8.28954032732121   11.30847964799279
H         6.46343338307406    8.41913575215841    8.99910050594124
H         6.62933071696034   10.92164909525085    8.08631256166822
H         8.05970989523131   12.34259183216860    9.85993817512609
H        10.70553258334542   12.96335104885243    6.16467590953058
H         9.40895362428262   14.05291327419224    8.01185754861153
H         8.05376622655708   12.96920788343415    7.67403061325016
H         8.58409809208859   14.12199677391124    6.46306864762148
H         9.72803700635534   10.79999809441364    5.18592274035254
H         8.86376411275261   12.27438927915362    4.74628518099552
H         8.21355490302752   11.20837946985068    5.98352169400743
H        12.50669384096100   11.78309835916092    9.37768608285642
H        10.51324897384390   12.08962505477248   10.75551598133731
H        10.15003405501080   13.62793665223686    9.94967899488553
H        11.62044108217152   13.44497557043778   10.89108597401924
H        12.99699209834618   13.29542060548613    7.45438668184026
H        13.00392532325650   14.15134496291676    8.98498905181708
H        11.63465005044212   14.32645817276480    7.90121212566507
H        11.52273570568675    9.57395275980010    6.46238927799685
H        12.94670328760459    9.60398121205243    8.55735977607188
H        13.89618468609927   10.91687673363564    7.83918307413692
H        13.85776294464301    9.34641732777503    7.06205077709251
H        11.73510346779101   11.44696686217946    4.84435175337056
H        13.25078950741420   10.59042427134372    5.03315587719366
H        13.04347238851327   12.15205586089692    5.79445027937611
H         9.38450690748655    5.62373234221925    6.75959565504643
H        10.55684798190426    7.56388939534965    5.54555137209927
H         9.00791914561939    8.39950656680098    5.56307284160393
H         9.16728433567913    6.87132499703269    4.70794293186729
H         7.16194705874887    6.12492433921790    7.80026844840498
H         7.11627112029043    6.19789833186494    6.04560691605933
H         7.15715923269789    7.69198437899590    6.96679657594670
H        12.06211670821404    7.72023749166866    7.47701857271002
H        11.52425156759345    5.73668298489491    6.12241048016494
H        11.47316329256696    4.71513398521891    7.56049847703999
H        12.98132029619108    5.44305744245968    7.04650925764306
H        12.31594176668422    7.45278024116663   10.00661514328636
H        13.59190760723365    6.74593450143590    9.01821120856002
H        12.37483435612041    5.70542549007373    9.73063672695669
H         8.18559787487546    6.43816980460716    9.75733120427285
H        10.08703136198939    7.50336200388725   11.23394424222096
H        10.77153519145888    5.88617773777779   11.24418318641674
H         9.15922882238217    6.14071157885108   11.87840239129591
H         8.86425658840974    4.41011026540326    8.47609222634896
H         8.83540444492192    4.12686023794449   10.20869729993551
H        10.37468163143308    4.33966372968945    9.39720605252061

