55
CSD_code = UBAXIE | q = 0 | S = 0 | Stoichiometry = C25H22Br2O4PRe | MND = 9
Re        9.80529563064774    6.04051476715184    4.97043497914995
Br       10.30057869982132    6.88655020267388    7.42200726642034
Br       10.74217801143298    4.26757565269990    3.32119775959019
P        12.05344831435314    6.77093523991369    4.73161974693544
C         9.54016790390466    4.44197431720045    6.02064753000375
O         9.35696003495473    3.50217683553291    6.64500930131141
C         9.20932325491161    7.87533086269785    3.47549745627262
O        12.48440182222787    8.17226182691173    5.40243466106756
O        12.40948297748975    6.93436827588544    3.18633460009458
C         8.71917105247670    8.08349904828299    4.77738793978649
O        13.23975192852488    5.87554872216430    5.25531340677432
C         7.76776324239576    7.05551488334179    5.06604372502978
C         7.69406485576142    6.21478402804651    3.92761656489820
C         8.56096655974470    6.74578877779205    2.92142509358026
C         8.67831825274183    6.26181183563812    1.52356950043205
C        13.67002616205289    6.68130184434459    2.64205924021737
C        13.75831438195709    5.75129566715237    1.61912503421545
C        14.98407601891899    5.52939234829328    1.01636982992179
C        16.10606331944384    6.22444693416879    1.43593340312902
C        16.00540619173417    7.14359976977126    2.46634582270118
C        14.78479740696673    7.37766684760511    3.07623410228066
C        13.16283738502801    5.21118493331896    6.48706746443511
C        13.60503752267098    5.84830978682313    7.63306735741437
C        13.53071286975633    5.18384614892377    8.84437609944057
C        13.01509128484113    3.90016049659953    8.90410874658528
C        12.58214507843582    3.27125578343853    7.74974208135552
C        12.65274551906366    3.92487789361426    6.53038308521456
C        11.89200296147269    9.40952775116395    5.23098952476467
C        11.39121268345016   10.06710705413303    6.34653136445971
C        10.82191839080518   11.31952064119843    6.19537980985894
C        10.75515088200668   11.91432494538849    4.94604459104298
C        11.27487190597650   11.26000129151111    3.84196955603039
C        11.84856747112570   10.00747334076101    3.97908168017338
H         9.88242135625445    8.52877178217630    2.94297318914661
H         8.92986775634274    8.93708198951033    5.40459379069580
H         7.11369129290692    7.03003582984816    5.92529768453202
H         6.98888671409509    5.41149828838860    3.77458761581870
H         8.65509618365534    5.17291487846267    1.47972583833708
H         9.60292138283826    6.61006293879012    1.06537518513359
H         7.83601136954855    6.64102426773988    0.94019831625065
H        12.87787641661584    5.20361155457527    1.32243021285551
H        15.05928390214574    4.80396547200585    0.22097527669638
H        17.06068296074634    6.04565358863396    0.96474221377123
H        16.87853123603770    7.68248834757057    2.80218651154626
H        14.69547206417521    8.08842515801020    3.88408894577798
H        13.97967422541962    6.85758222450362    7.56773754703660
H        13.86152042141921    5.67937766074189    9.74355840415907
H        12.94521017685863    3.39181558712244    9.85335817065174
H        12.17556693459603    2.27295110366826    7.79132815179628
H        12.32877861415227    3.44383861872910    5.62020006447504
H        11.43762242580016    9.58384821900348    7.30945371187604
H        10.42427475090280   11.82694206733858    7.06087287848138
H        10.30377250120016   12.88825470494438    4.83236670472651
H        11.23636518661195   11.72341489266756    2.86712050291041
H        12.26812215060067    9.49541207137782    3.12508075874515

