29
CSD_code = UBAXUQ | q = 0 | S = 0 | Stoichiometry = C11H13Br2O2Re | MND = 9
Re        2.03986348919817    1.59962803127289    3.05885522440512
Br        1.13225469394212   -0.92998528039497    3.18473403058662
Br        1.26875342809751    4.14799451408658    3.43524716299904
O         0.66980030689610    1.49935644478420    5.82639612692212
C         3.80495390027883    1.71798283646694    1.35625246545441
C         3.88030744767239    0.49414996556979    2.06033739049994
C         4.17885204757891    0.76107198729055    3.44594935354478
O        -0.44560683526648    1.76066725963551    1.23298896377523
C         4.00121822754271    2.74158120449135    2.31917320991994
C         1.14465090959299    1.53846150909346    4.79577250003363
C         0.45801683801308    1.70081648565805    1.92104013151116
C         3.66815547259222    1.89979245062530   -0.13552999411524
C         4.25393935879439    2.14639197775136    3.60284897289313
C         5.08736655919335    1.91498885923219   -0.72586353752297
C         2.87062810521997    0.74391166861620   -0.74922060113682
C         2.96473293129618    3.22368399938432   -0.45473020973364
H         3.84887940994374   -0.49461744951939    1.62956457789868
H         4.42109100393555    0.00866275824084    4.18131328858759
H         4.06747274187390    3.79936232683557    2.11803632241307
H         4.56177108591776    2.68562454733596    4.48565568361317
H         5.60241245917709    0.97896539629359   -0.51675551519556
H         5.67196771902728    2.73157874449729   -0.30578818444378
H         5.03713424986410    2.04681776248078   -1.80375356970772
H         3.39288256600799   -0.20347944081672   -0.63730348878291
H         2.72380580836010    0.92027659705034   -1.81188956202981
H         1.89059977330994    0.65601181806224   -0.28090822617261
H         1.99369373101423    3.27712688467132    0.03695756512149
H         2.80678973190892    3.30856788740197   -1.52700587335785
H         3.55901283901734    4.07710825390256   -0.13667420798010

