65
CSD_code = UBEDAJ | q = 1 | S = 0 | Stoichiometry = C18H33BFeN9O3(1+) | MND = 6
Fe       -1.70059443707196    5.65342285968266    6.88752427986072
B        -2.63274765459994    2.95540357458226    6.21499014538573
O        -2.46234987628788    3.11946785344223    7.70125129470831
O        -3.62168719253409    4.01234464073461    5.75032564224550
O        -1.30167908945221    3.26978829069096    5.55046291164721
C        -3.59864771513745    3.87753641310066   10.13709449923418
H        -3.63744018233479    2.88097475653674    9.70415223326891
H        -4.60746668659453    4.20219272980651   10.38184811582789
H        -3.01310707922850    3.83603764904694   11.05474624296415
C        -2.96508770585326    4.80219273906728    9.15281660096140
C        -2.98160304105412    6.23182483552810    9.25866272911204
C        -3.42894791678889    6.94968627449961   10.49242502778144
H        -2.62686446576098    7.58382360959877   10.86992527724916
H        -3.70049351293183    6.24202632704054   11.26684415773675
H        -4.29620220131891    7.57945243552261   10.28608444578452
C        -4.43233736522540    5.80653555071739    3.75508253968444
H        -4.78990365603727    4.78651968563631    3.86749197204964
H        -4.04746956293696    5.93610627384878    2.74601968431119
H        -5.26939184566929    6.48887709663671    3.89891878293276
C        -3.36694087487460    6.05685728393671    4.76943425065944
C        -2.48562265266835    7.18655969855087    4.74257257996826
C        -2.66937923590467    8.33102974483292    3.79336552301242
H        -2.63012400882496    9.28370914134357    4.32162274283989
H        -3.62753714009189    8.25574073121724    3.29218204002099
H        -1.88791989729303    8.33123064038531    3.03124346506745
C         1.45587416700327    3.11383000548420    5.95741312514708
H         0.82955914368014    2.33718219768955    5.52451298876833
H         2.02045229319771    2.69803276261441    6.78871244311598
H         2.15665914141653    3.46085714453242    5.19886629012299
C         0.57861167411479    4.22887129858972    6.41927001989050
C         1.01277575298791    5.30063804422481    7.26843625895418
C         2.44599088700520    5.49623254431969    7.65692031781965
H         2.57960385204723    5.30277555494715    8.72121504834278
H         2.77075635536312    6.51955346699498    7.45807946902718
H         3.08787900258748    4.82417360726229    7.09924222233553
C        -3.10372096221443    1.47947323993888    5.89627029514747
H        -3.20839231935977    0.83629344969261    6.76037539580935
C        -3.35002477526142    0.95343511447228    4.69913168909324
C        -3.77531158122417   -0.46925180753807    4.50742549830260
H        -3.91499858392228   -0.97339404168397    5.45895324678441
H        -3.02306511165215   -1.00852932457775    3.93280165965665
H        -4.70650720126743   -0.50493260666536    3.94382504689737
C        -3.27113224813496    1.75684965104290    3.42872307399745
H        -2.71244539725573    2.67282194585275    3.62621357051954
H        -2.75509292757404    1.18909275855473    2.65256107599296
C        -4.65272186036274    2.10783006845383    2.96311641820457
H        -5.28827568911295    2.53113708884121    3.73060334637083
C        -5.10685739342783    1.91709132814302    1.73902517249249
H        -4.49276598395550    1.48157444938555    0.96770508855695
H        -6.10906220183854    2.18634293644226    1.45149113280136
N        -2.38705785991490    4.40191852227111    8.06256998778353
N        -2.59774746499106    6.83133541048381    8.16826876951888
N        -2.46650309973313    8.19874186064045    8.15395997270035
H        -3.06621448868396    8.69174309384498    8.80999167748024
H        -2.54570214290984    8.55667292648357    7.21243162527540
N        -3.07087676898833    5.22690647432451    5.72466462335524
N        -1.48063306007730    7.07808875603914    5.56760683255349
N        -0.55304329150040    8.08792632556066    5.65530340918755
H         0.34530246810868    7.71197914871040    5.92439705395287
H        -0.48254242778991    8.66672449995739    4.82230709719762
N        -0.68823188988196    4.29709726630931    6.14690344488932
N         0.03436753286072    6.03940247627808    7.71433617047325
N         0.26842292736011    7.03009528449052    8.60815049279201
H         1.21494937328005    7.39385775635131    8.64404303683692
H        -0.45613284350338    7.73648848524896    8.58988872754186

