69
CSD_code = UBEFAL | q = 0 | S = 0 | Stoichiometry = C30H22B2F2FeN6O6 | MND = 6
Fe        7.28544960371155    5.72644021175373   10.45410556318435
F         6.55151112857292    8.65043006358782    7.35908850303952
F         8.01087901229412    2.79892576999728   13.54856181489974
O         5.49287033912065    7.39665078193656    9.00688519747115
O         6.58995684121579    3.30536824772155   11.77878918359384
O         7.35088801417829    6.50604570125872    7.72615808636197
O         8.97094277922511    3.80211247576861   11.69344879468280
O         7.73357217647579    8.29347884954063    9.31995670283355
O         7.52443493995005    5.03777750179381   13.19700964786055
B         6.77726192412818    7.74279323386775    8.32599972705843
B         7.78473364839727    3.70640568973929   12.58157233045505
N         5.62219490086923    6.33069692258269    9.81190201621562
N         6.18169411967663    4.28710961734772   10.95994564203371
N         7.82870547303010    5.64334598212335    8.64611293350053
N         8.73966613639977    4.52243427401132   10.57597234464659
N         7.83936159536401    7.53512595022045   10.43103783842035
N         7.52870033529152    6.04562837987304   12.30092174483570
C         4.60037376055213    5.53781700388205    9.95597687706667
H         3.63602260463062    5.76078654998036    9.52388345558429
C         4.91020011218926    4.38786783283405   10.70179225685507
H         4.19450710803315    3.65795474892119   11.05020453590562
C         8.88145078484719    4.92887678552440    8.34616077741524
C         9.33870015807107    4.16279855114391    9.47094822709533
C         8.04233330270808    8.13445437178664   11.57512581183599
C         7.98608703620198    7.21191280476959   12.67394527034222
C         9.56014535732667    4.93912230472600    7.04669292958191
C        10.95499395507923    4.93540630431690    6.99642318328566
H        11.52332890233445    4.93792801744848    7.91399299812260
C        11.60588274098822    4.94872150370019    5.77854626673054
H        12.68527942524191    4.95024388817993    5.74909733531743
C        10.87880423660376    4.96359640521643    4.59867700835133
H        11.39109526446822    4.97156824807286    3.64829473583419
C         9.49487007933039    4.97564396392046    4.64239353750983
H         8.92489509620114    4.99352077173179    3.72580318885768
C         8.83478304147810    4.96742653546464    5.85722532928123
H         7.75730469242049    4.97902960138779    5.88961575848894
C        10.30286415074232    3.06350783791773    9.36228638008904
C        11.27894283855219    2.86443828894296   10.33652060203540
H        11.33407992128678    3.53216862173136   11.18110854217180
C        12.17346866969436    1.81689721733136   10.21804523466158
H        12.92785430820522    1.67126969719841   10.97637642935220
C        12.10125800511259    0.95502490834642    9.13683008035213
H        12.79976857871892    0.13647216450477    9.04869575394174
C        11.12502142210547    1.14092398561007    8.17074094294626
H        11.05877802339710    0.46536683347452    7.33105676302055
C        10.23067905835690    2.18763066342877    8.27816049117825
H         9.46167456259476    2.32118463641820    7.53271910545127
C         8.22837073751592    9.57910540953311   11.74221271888450
C         9.00763341360312   10.31233669710492   10.84957557745668
H         9.48935430009898    9.81150052628117   10.02539232032556
C         9.16374902330189   11.67518233955706   11.02256107041648
H         9.77079472449758   12.23493334635723   10.32716756303347
C         8.54241082573907   12.32166881682808   12.07754682959309
H         8.66397491316791   13.38650053439308   12.20800364918192
C         7.75630375368417   11.59974449403730   12.96176085244864
H         7.26152795048057   12.10137687348832   13.77988566096040
C         7.59857907137760   10.23747724165852   12.79950166528087
H         6.97357110773908    9.68032347156683   13.48054799059284
C         8.44934515745309    7.53664635465117   14.02646905936427
C         9.60612491321309    8.29955047264111   14.19412179377460
H        10.15444159388466    8.63709245887696   13.32785254562375
C        10.05933413130928    8.60390542725127   15.46257092175973
H        10.95767053506330    9.19073736116700   15.58284126430396
C         9.36758921058024    8.15615353324061   16.57703799505943
H         9.72366187529804    8.39770927899246   17.56724955003036
C         8.22313668301861    7.39331588611081   16.41697359467377
H         7.68448521314736    7.03799099199264   17.28238653194082
C         7.76474815489139    7.07958368376940   15.15080563336222
H         6.87522254555914    6.48313409946834   15.02802733217738

