29
CSD_code = UBEJEQ | q = 0 | S = 0 | Stoichiometry = C13H9N5PdS | MND = 4
Pd        5.02587564045603    1.64408348435300   14.19504339475883
S         4.42073170137216   -0.63622083447383   13.69716216394640
N         7.02725482429231    0.99089676516857   13.51679250760946
N         6.36068268894734    4.91879069531951   15.97754011901999
N         5.23849695028918    3.78125491365832   11.85893637519180
N         2.89647036081841    2.92187197254454   17.28183209758699
N         1.88121831905141    2.32848613370032   12.99789115042841
C         7.92930879707318    1.92178201913943   13.21276802281220
C         8.94627157917968    1.69729354627280   12.29995113753633
C         9.02263473830292    0.45866033052297   11.68293927955376
C         8.09249677751509   -0.51269044065426   12.01401271719440
C         7.10299493187299   -0.21170580319550   12.94265182899271
C         6.11383730321233   -1.25772872565234   13.37073895221472
C         3.97670032183987   -0.06617632330293   12.01877903338985
C         4.78035855351165    3.68203855546209   14.39090062677884
C         3.57785398642921    2.99387444713819   14.81097074278390
C         5.63832942614762    4.35555183125955   15.28437490318571
C         5.02015736444110    3.76025645085767   12.99167499697935
C         3.20718903836286    2.94606199052073   16.17744270917543
C         2.62985983455934    2.63469572823430   13.81733470696919
H         7.84347735461439    2.87199287066844   13.73028515873619
H         9.65386731154012    2.47839150376541   12.07646448170015
H         9.79446434442065    0.24933750709211   10.95830279765357
H         8.13008040986137   -1.49172995753773   11.56227657001044
H         6.43208786972215   -1.69006051108679   14.32342956031099
H         6.03751087374294   -2.05428029082087   12.62973239086627
H         2.96404273670506    0.33300219860080   12.08171066687264
H         3.99536176427779   -0.91614213955632   11.34138445398832
H         4.66178419744156    0.71871208199732   11.67577645374991

