45
CSD_code = UBEJUJ | q = 0 | S = 0 | Stoichiometry = C20H14Br2MnN5O3 | MND = 6
C         8.98689935863116    7.84926368185003   -0.09546460985926
C         9.55710908536799    7.24984090082105   -1.25096005614327
H         9.25072420843615    6.24271939920963   -1.48859915706403
C        10.48125695038663    7.90037161299129   -2.01901752650752
H        10.91654626961903    7.42022547918171   -2.88215050272633
C        10.86687852906502    9.20372523868714   -1.68237722186666
C        10.33499517310011    9.84013819743248   -0.59297060274872
H        10.63807857635115   10.84765068078500   -0.34798354484303
C         9.39389976346623    9.18908292358683    0.22471469350808
C         8.81029402250457    9.89484353845996    1.31093748799514
H         9.06016392196710   10.95474894276881    1.39036540812768
C         5.55757460419855    5.48489731374859    3.12640915241675
C         4.98938976316085    4.19981569203797    2.90515401842091
H         5.36473414836469    3.63263092556211    2.06720106640652
C         4.02397091111367    3.68518411226050    3.72324300555317
H         3.61442841377736    2.70306331558452    3.54265445977075
C         3.56377439805306    4.43998737868395    4.80934960488135
C         4.06898786406438    5.68551421569973    5.06938240078090
H         3.70735365610414    6.25451998702624    5.91345728853457
C         5.06688137847726    6.23996294384911    4.24692053687884
C         5.55944649352755    7.53975418406868    4.54303309555151
H         5.12216048946080    8.03586641171688    5.41170659457334
C         7.37208342409063   10.27021348038202    3.13752320438481
H         6.48478173835730   10.71683026176792    2.67021114105018
H         8.05512355643805   11.07447620704300    3.43270437379874
C         6.94156589490827    9.44283176293681    4.34937742862191
H         7.80919351704012    9.26947850797690    4.99927088349288
H         6.16719735342194    9.96123334976192    4.92604846520657
C         9.68467767705735    6.58971464556569    3.83096834459800
C        10.72962443174087    6.19056624043068    4.58975244926735
C        11.14093495365863    7.00950426225513    5.65344254172243
C        11.41049655028591    4.98748526951481    4.35028822346977
Br       12.14195452899891   10.10252137071113   -2.77267698475271
Br        2.20788262723557    3.71558065090532    5.93330137038123
Mn        7.38155943916631    7.58500377500446    2.30273595908913
N         7.98827077359534    9.37618969335008    2.17117243598316
N         6.48088902493179    8.15377519745608    3.86657036238611
N         8.76851627481077    7.01337540714237    3.22204192978979
N        11.46008007330673    7.69196164819356    6.52056691702387
N        11.97959657145307    4.00688004559691    4.17039882108448
O         8.11520042980331    7.19961909515193    0.58447880535814
O         6.45087617498366    5.91866054592889    2.31631528187481
O         5.52767402945943    8.19914106670363    0.97703050146416
H         5.85386713141986    7.99614549899806    0.08951715645354
H         4.83320584463315    7.55300494120739    1.15645479659954

