48
CSD_code = UBEKEU | q = 0 | S = 0 | Stoichiometry = C21H18MnN5O3 | MND = 6
Mn        0.98756242975705    2.55419998267152    3.18355963640312
O         1.76336292597275    0.92662758525021    3.04759370274033
O         1.40979536111246    2.91279969558333    4.90233914168295
O        -0.78840415836101    1.45549029954170    4.01835900047761
H        -0.51279644053024    0.53528612553448    3.91963868519385
H        -0.72168719672620    1.65273910627531    4.96118257839922
N         0.42548724832934    2.28170669068792    1.22515889242815
N         0.05521946445923    4.38900151114287    3.19020562944174
N         2.59608993920417    3.40983006549163    2.56898642464328
N         6.63319521016232    1.88303951339584    1.81866973743870
N         5.98884637542650    5.23871987436201    4.65267920852710
C         2.59644192657716    0.52837107092281    2.13942815091559
C         3.69820316354688   -0.29254001477509    2.44254340101348
H         3.88333909861891   -0.53237608927293    3.47903374394226
C         4.54217255509822   -0.72684862666361    1.44977801603213
H         5.40736992375484   -1.31787315938280    1.70746667482015
C         4.29962454743885   -0.40557058882331    0.11378230510031
H         4.97352678592607   -0.75409261365739   -0.65233575711321
C         3.20851610192669    0.36003125389280   -0.21667044578226
H         3.01148033313930    0.61157941819729   -1.24932008034944
C         2.34708439651952    0.85787501864991    0.77172721759920
C         1.19394440168980    1.62219325638143    0.41804150614014
H         0.93139877941011    1.59862219920221   -0.64398755892141
C         1.98184080008695    3.97738347369775    5.36760359267301
C         2.94109401801602    3.92270784876060    6.39559201200368
H         3.25139073192631    2.95074859446496    6.74961730716510
C         3.50284468466883    5.07397898553923    6.89109327411938
H         4.26913932693847    5.00956208015964    7.64812553329836
C         3.10181826959062    6.32516523686282    6.42142467532085
H         3.55625022917671    7.21800576669662    6.81963509289553
C         2.13766765030875    6.41124283407964    5.44750338389754
H         1.81914370057409    7.37634153138172    5.07943593792909
C         1.56892409076490    5.25807118974461    4.88724387748845
C         0.53851190135445    5.35565734975447    3.90375237422938
H         0.10068503518418    6.35209283922920    3.79048173204074
C        -0.77112485984548    2.86510921670967    0.65052370576907
H        -1.64238873730746    2.38918828906896    1.11789392143136
H        -0.80916499714022    2.66951496434251   -0.43060930813892
C        -0.83645535995245    4.37320312779717    0.89084912553056
H         0.10605045987682    4.82803306757865    0.57778689780402
H        -1.64577883099829    4.79099826208885    0.29010631873256
C        -1.09134114387054    4.70538385026962    2.36081855395756
H        -1.34478201345973    5.77126494367131    2.45157834541827
H        -1.94524138453275    4.11639144343271    2.71867381058156
C         5.08086052537424    3.51315443105389    3.01252316735223
C         3.74438694685782    3.42552647357073    2.81051790606280
C         5.93775230911981    2.62652525518856    2.35523766457035
C         5.58414347483260    4.46233737022775    3.90583128708378

