37
CSD_code = UBELIW | q = 1 | S = 0 | Stoichiometry = C6H20CoN6O4(1+) | MND = 6
Co        5.59511462281112    4.71070013662848    4.18838038955124
O         5.35244570250948    7.36078006891674    4.44006578334121
O         4.24243333825730    6.54115176205146    2.78676049138884
O         5.36837700825847    2.19058842209619    4.96969212380709
O         7.39748377571867    2.80318018812226    4.54212646686157
N         4.05208201980385    4.53587771259684    5.50155320507096
N         6.61372873582395    5.39558431884234    5.76066290772316
N         7.11558977559257    4.94931208062098    2.85936992384942
N         4.62493170641179    3.88948783258373    2.65108671191994
N         4.98698256753375    6.41740590780763    3.75059478115573
N         6.19615680305680    3.02146730089910    4.62159216851817
C         4.41538481612250    5.28321445714096    6.72006268081710
C         5.89199773475490    5.04440796151395    6.99624237634268
C         2.67068036914126    4.83347668126205    5.10806539096115
C         6.57143210378198    4.71130749415575    1.50940913080278
C         5.59327053135421    3.54946757852395    1.59381399795167
C         7.96319773096107    6.14637964938055    2.86851776031993
H         4.07780054915232    3.53381012787111    5.73654851700136
H         3.80004754325482    4.97134811052106    7.56944995532067
H         4.24296015829173    6.34825967487262    6.53949114281242
H         6.22919856251030    5.64880538105096    7.84319407592550
H         6.06874007597917    3.99167774798005    7.23357671072375
H         6.61254504689745    6.42166998609050    5.67514901585456
H         7.58489855612520    5.08781790065607    5.83915096759589
H         2.35264309638574    4.17707224555226    4.30207025825818
H         1.99415440907740    4.68476846379124    5.95306800542251
H         2.57695576486202    5.86751673586230    4.78071022437958
H         7.73052726297876    4.15561287733591    3.08732995987008
H         7.37319089573610    4.50088540126915    0.79510054627121
H         6.04403847322741    5.61241870007524    1.18314189379234
H         5.09753299915481    3.39159764391867    0.63170618031873
H         6.11858304124742    2.62933200593738    1.86439087716382
H         4.00122472452655    4.62209091770773    2.28432321902631
H         4.05482047524023    3.06818599961756    2.86202204399198
H         8.47408904169026    6.24664614529069    3.82288872402930
H         8.72072814691149    6.08190053558541    2.08372142705197
H         7.36903183485689    7.04099384587129    2.68936996480712

