93
CSD_code = UBEREA | q = 0 | S = 0 | Stoichiometry = C37H53N2Y | MND = 12
Y         5.30697369535327   10.82549418214140    6.71466654518785
N         6.97339088418353    9.77378221604811    7.88707431881552
N         6.66395721708227   11.96959937246244    8.21046788564861
C         7.79581972557093   10.96866382647891    4.38709324823405
C         7.27096265001310    9.68562548735688    4.06289463514979
C         5.88793550219162    9.76603004241209    4.01361907903524
C         5.48409859289709   11.13066115880006    4.35102466703856
C         6.74244708263316   11.85914851745942    4.53122278115053
C         9.24511368390618   11.31425494042244    4.53971088530169
H         9.50529866617293   12.16725458102657    3.91211171201506
H         9.87506389118878   10.47665205909632    4.25247328072443
H         9.47491459462713   11.57873879916278    5.57453374199138
C         8.09981495074411    8.48487148785571    3.71911049035642
H         8.60768842671336    8.64406298911901    2.76604995224045
H         7.47850115498420    7.59797082298197    3.61971364839926
H         8.86299301095661    8.28757022833534    4.47113361011636
C         4.95239867761522    8.68291195853919    3.55268643534693
H         4.98753552983169    8.59355836258386    2.46460438142778
H         3.92326775568729    8.89876966755422    3.83585039993781
H         5.22291717644936    7.71235507313567    3.97043023544660
C         4.32794436889771   11.80077384242457    3.61510982751829
H         4.67154267514044   12.10530866116727    2.62233044818693
H         3.96186368833866   12.69368731220003    4.12550246201482
H         3.49418716318731   11.11694528579173    3.47514399316511
C         6.86376565264247   13.35778038680445    4.56071395773440
H         7.09590406603971   13.72581540741462    3.55731082593639
H         7.66994384105062   13.67926336884078    5.21893986590554
H         5.93569989767808   13.83361934007208    4.88042935410681
C         3.41917844911946    9.82332938194855    9.16399326986043
C         3.27075309897641    9.40479664505942    7.84394648814502
C         2.93879025141106   10.57615715978249    7.03096913325313
C         2.83656369919668   11.68544645864823    7.96741494032081
C         3.15322526387625   11.22006778173919    9.23660136862125
C         3.78011507598856    8.98880311579326   10.35357309853786
H         2.99021793672896    9.03687140738850   11.10413691740002
H         4.70049398714767    9.34981602489912   10.81736446120174
H         3.92054787898335    7.94611647847001   10.07771285270901
C         3.12807234246501    7.99125581262978    7.34100300426047
H         2.06702885304359    7.74136600596694    7.25292317893277
H         3.57314057689090    7.27863299556802    8.03280582173876
H         3.58637612910310    7.85388526773774    6.35900874770580
C         1.97047514612952   10.46466311713433    5.86522697380563
H         0.97274614980545   10.23964838946993    6.25465692025530
H         2.24091403415797    9.66197953586231    5.18033232738721
H         1.90201946879059   11.39633145467329    5.30669761658519
C         2.28479212515106   13.03342916228246    7.59345504704898
H         1.20915425951619   12.95885597017740    7.41624273101203
H         2.74753017408614   13.42561800175786    6.68455116191985
H         2.43431164234613   13.75557815303109    8.39302946065242
C         3.14057523248558   11.99490687712078   10.51783343243377
H         2.19611753071371   11.84000796389586   11.04403652311894
H         3.25144659626507   13.06344823513922   10.34302895297486
H         3.94101774921709   11.66423153277179   11.17845352330941
C         7.37395038948642   10.88251590665335    8.50527677727997
C         8.48039494353548   10.90373058532735    9.40571172201661
C         9.42411599511628   10.92208437958130   10.16119154133148
C        10.52548023833625   10.94413752107936   11.04451873868964
C        10.91042096017402   12.13880583797452   11.65584482693230
H        10.35870439109123   13.04447672972820   11.44834116214678
C        11.98921164299165   12.15461680412252   12.51796087452416
H        12.28523358574932   13.08020242654233   12.98966741337493
C        12.69158686585506   10.98840803217578   12.77883627759484
H        13.53465221137190   11.00566662744310   13.45344610894052
C        12.31253776892295    9.80012353766674   12.17412805844891
H        12.86049259438787    8.89181690285261   12.37800245570153
C        11.23545581861288    9.77178705102748   11.31015843987707
H        10.93491992577394    8.84863525642709   10.83569925658069
C         7.64049585842352    8.48194308933344    8.02543331238231
C         6.86978347477944    7.51805049690366    7.11165141434169
H         6.85729571423215    7.90740104753413    6.09418499348573
H         5.84668403430299    7.41294023039108    7.46829005727644
H         7.33925160565190    6.53644603441103    7.10775201265943
C         7.56398911585928    7.94855867553541    9.46454749575596
H         8.11712448632291    8.58484937060117   10.14919468101022
H         7.97811819643963    6.94369734502343    9.50917509847380
H         6.52624805963772    7.91466942271945    9.78837946771107
C         9.09992337852302    8.55076486130412    7.54878822655305
H         9.14005550156607    9.04409458691278    6.58068201249125
H         9.51090397624494    7.54810894774840    7.45374174746495
H         9.71470945873572    9.11385799849438    8.24454278755826
C         6.91962128198264   13.28422364413967    8.79314709495340
C         5.83423275993289   14.21156657083207    8.22725086489068
H         5.89373306821220   14.24043868476427    7.13966156480482
H         5.95818218443700   15.22289693664464    8.60885742800877
H         4.85283637999144   13.84333206159255    8.51965214212386
C         8.29876169891479   13.82517638413694    8.38239386673914
H         8.40118140664162   13.79564570758689    7.29958845212593
H         9.09576728964107   13.22836512300105    8.81657796248296
H         8.41059644663300   14.85447081412494    8.71561385702902
C         6.78600891975897   13.27550663588921   10.32408785985566
H         7.57591108458037   12.69150990752222   10.78608267962363
H         5.82909423675048   12.84345830618068   10.60354997803399
H         6.83618517705152   14.29290721138590   10.70573866741285

