65
CSD_code = UBESUR | q = 0 | S = 0 | Stoichiometry = C20H40CrN4 | MND = 4
Cr       -3.54234742293583   10.45693151861906    9.97443422662371
N        -3.30468902895585   10.31666114028188    8.10153696639398
N        -5.15848323931648    9.47078815065778    9.93487527698984
C        -3.64419726067765    9.00446679172361    8.17365721817977
C        -4.57454158978503    8.58016779138934    9.09333296673507
C        -2.41352131756424   10.73774303754167    7.03728827532333
C        -2.14119274568251   12.23488492607849    7.21345285096596
H        -3.03896122832292   12.81032144627281    7.00456830313270
H        -1.35627024940757   12.56190125488461    6.53526827749567
H        -1.83052186647791   12.41899997628100    8.24207674628350
C        -3.06160599409625   10.49301330065976    5.66569647144462
H        -3.20790724927896    9.43026042637096    5.48825194924707
H        -2.43119662090914   10.89214738702718    4.87499688560969
H        -4.03200228129708   10.98262785926646    5.62331381087242
C        -1.06264351532284   10.00047540090188    7.12282049844899
H        -0.63535865435302   10.15148545464715    8.11387648973106
H        -0.37292836688986   10.39346981905094    6.37999260652635
H        -1.17351372950292    8.93322344048179    6.94599385315266
C        -6.22526231889753    9.00131427962223   10.79854774850002
C        -6.66748748947881   10.17101766391174   11.68342578363249
H        -5.78733266492858   10.61083821864400   12.15299291066251
H        -7.35422714985302    9.82783063091663   12.45394111094940
H        -7.16890214585266   10.92870190677564   11.08738380836956
C        -7.41765624059323    8.51350259720711    9.96072872792963
H        -7.73698949892076    9.29976821153760    9.27995559687482
H        -8.24996622333491    8.24960411080303   10.60863134066048
H        -7.14800738999310    7.64056109096593    9.37068647050471
C        -5.73224668540969    7.87156913357252   11.72401980844126
H        -5.45569508981284    6.98181789668354   11.16283668393878
H        -6.51408701574134    7.59488151652990   12.42723895635092
H        -4.86396474868341    8.22044884109613   12.28293536627186
N        -3.66535532189669   12.18702166926882   10.64222226461796
N        -2.17096084445300   10.33805698822099   11.30580560010469
C        -2.79912815309785   12.50525134258913   11.66127917636618
C        -1.98668409884255   11.49360035377841   12.01894296240527
C        -4.56137047747575   13.26418860264163   10.23675955642645
C        -3.77022925341076   14.48727729031515    9.73584712525166
H        -3.17166520236960   14.92107749000170   10.53171236786926
H        -4.45761855787141   15.24809685946739    9.37335786149421
H        -3.10585295090022   14.20090498299957    8.92763636456109
C        -5.45339580995588   13.71416890620580   11.40931753938240
H        -5.99339359236596   12.86683797949277   11.81778698601384
H        -6.17058095159966   14.45568550670382   11.06512213475455
H        -4.86186116284358   14.15707848320619   12.20537610055158
C        -5.46212719078677   12.77091824991347    9.10211383385371
H        -4.85856001080171   12.45799798585213    8.25684159503393
H        -6.13683575006147   13.56366374900955    8.78795191986129
H        -6.04240433771521   11.91613426806740    9.43227891965725
C        -1.30811928833088    9.22317647129614   11.66729585328263
C        -1.63867279282615    8.01854826188966   10.77879820062270
H        -2.67637684290825    7.71935367505530   10.91554083253527
H        -1.00080083045288    7.17644728016096   11.03896116290247
H        -1.47498880495627    8.26344892298556    9.73082703149491
C         0.17411618742387    9.58212809240184   11.45034534695795
H         0.32323392968833    9.92268410618249   10.42733092895907
H         0.80484244495632    8.71387895928290   11.62786714366718
H         0.48784304420091   10.37738408298730   12.12046969411290
C        -1.53180238791637    8.80867864497189   13.13385424450819
H        -1.23974325036765    9.60288954531399   13.81489697857743
H        -0.94974066627168    7.92078806884528   13.37041233520492
H        -2.58605727281958    8.59299686477693   13.29740016119434
H        -3.16805612404435    8.26552340443139    7.52973886817438
H        -4.80874330150488    7.51749343617408    9.15076555015190
H        -2.78147395992172   13.47885517765105   12.12440092433064
H        -1.24502939522050   11.57143907745869   12.80128444887747

