65
CSD_code = UBETAY | q = 0 | S = 0 | Stoichiometry = C20H40FeN4 | MND = 4
Fe        3.42091296357420    2.95695037654664    6.82634883328772
N         3.49941457326100    3.30923412521083    4.59009204984861
N         5.13303283390189    3.43876373411117    6.56251471476608
C         4.71721235372970    3.68797360344114    4.30430409946299
C         5.63136574703691    3.70622421731758    5.35416708029262
C         2.47526142314642    3.31451597582356    3.56329284370577
C         2.45567773482132    4.61999080379475    2.75141652985198
H         2.40523158857164    5.47289291278410    3.42476528875155
H         1.58513896097509    4.63793055463813    2.09964777535093
H         3.34359886361333    4.72040398286642    2.13211711755468
C         1.13178288795578    3.16205805898823    4.27891208478066
C         6.07338583443567    3.34489286773528    7.68092870537227
C         5.26114027914021    3.08439911161513    8.95896216473918
C         6.86194270345283    4.64964363810874    7.86984966531957
H         7.43004805685163    4.90237381126590    6.97869244985862
H         7.55679304207172    4.54464393665538    8.70041723014577
H         6.18345884708428    5.47107004260592    8.08667080924956
N         1.95936159437582    2.07985452883760    7.39935517358600
C         0.89934283838750    2.70356384977910    7.91724448143839
C         1.99388663523514    0.61833675898620    7.48319744124053
C         3.29319863052105    0.13680457288740    6.81948384623491
H         3.38251408818797    0.57056194507236    5.82292552572429
H         3.29547149972211   -0.94730984923395    6.73628221919877
H         4.15870229978677    0.43815509339355    7.40871871810056
C         1.98136737608304    0.16389780621375    8.95210125247513
H         2.75490015058235    0.68802091204329    9.51048549386000
H         2.16444123750153   -0.90629137087547    9.01679294580157
H         1.02299026477482    0.37682493223493    9.41876641017956
C         0.80895435358992   -0.01330711114308    6.73688559856372
H        -0.13991929932961    0.34986694158115    7.12226011333181
H         0.83409861338279   -1.09499603774531    6.84933465290449
H         0.86206668040152    0.22649010309556    5.67774882627075
H         5.04327929873242    3.97067751313548    3.30373987953809
H         6.68360566125552    3.89180227379156    5.17890894875137
H         0.30701579476507    3.15954002055137    3.57009693750187
H         1.12423468369570    2.23735165961213    4.84628870909536
H         5.90666882429851    3.12333510696185    9.83280384344515
H         4.79219242847007    2.10150063408965    8.92094365812602
H         0.06322119764495    2.17620403802679    8.35934843648963
C         2.69414113430230    2.12237429179291    2.61763985332829
H         2.68968376728740    1.19434475069335    3.18531505577890
H         1.90639970265318    2.08019057656195    1.86903283379575
H         3.65336797554114    2.20880357889460    2.11151106398022
C         7.05141541294289    2.17964911452174    7.45737446865744
H         7.71393146651356    2.38314842573137    6.61963471029640
H         7.65857195519468    2.02053808989166    8.34567169045543
H         6.49954463184192    1.26708906562420    7.23938903172026
N         2.05606988398290    4.64263154314488    7.48123319989522
C         0.94610809019901    4.09471012081195    7.90067542054979
C         2.16104749857504    6.08586597986025    7.38023197086274
C         3.44178533256538    6.38158202406913    6.59783829591070
H         3.39942220887510    5.87994129556535    5.63549999236090
H         3.57365073960689    7.45076628963472    6.44907838584626
H         4.29711824181767    5.98424597128276    7.13414908427620
C         2.26337616251318    6.69525416798322    8.78769981706345
H         3.10563012058429    6.25797609857972    9.31963480015766
H         2.40697121098296    7.77160745687112    8.72719074724178
H         1.35854225253672    6.49531029647064    9.35750099242702
C         0.97249790379314    6.71177242827139    6.63252853506162
H         0.04443183304422    6.59346108936315    7.18608892043970
H         1.14536759122556    7.77521374491215    6.48357721451376
H         0.85771098959840    6.23771680866608    5.66041821787751
H         1.00457751094423    3.97666224291755    4.98551035537421
H         4.47897748683456    3.83679949237980    9.05969671884499
H         0.08176535035223    4.66459898070441    8.24146606907917

