84
CSD_code = UBEWIJ | q = 0 | S = 0 | Stoichiometry = C36H42Cl2OP2Zn | MND = 4
Zn        2.07171216831225   10.14688362605186    3.97428740995053
O         5.89075090337462    5.57787276429821    4.70655239866355
Cl        0.72570788033188   10.37239617404624    5.74016309886867
Cl        2.14437492221852   11.44946796383981    2.15007769094648
P         4.30296149972131   10.21918349309655    5.20849866033905
P         1.82467075923630    7.88920864394832    2.85551252074122
C         4.36860809724473   13.01217536482569    5.31695857930984
H         4.06094492096487   13.89823586713606    5.86952612567498
H         3.70293157138424   12.89752882805795    4.46129004414773
H         5.37993235071598   13.17824500595218    4.95275598080664
C         5.33579115481330   11.85301729853537    7.34554950158202
H         5.08842429248677   12.68149702866591    8.00749073886791
H         6.33619903602308   12.02316795784742    6.95832085745000
H         5.34129833360353   10.93825327252033    7.93499745883702
C         4.30439897761578   11.78586352476258    6.22320228048761
H         3.30237816658833   11.76016143148364    6.67437893980340
C         5.80136545947593   10.92920442683869    2.95624196007557
H         6.52054658116652   10.58047487677903    2.21705633962717
H         6.03928361695147   11.96171129372963    3.19591271877858
H         4.81020457211307   10.90642264463273    2.50635504080981
C         7.17268443678985   10.24635258954223    4.95803822402108
H         8.00053660079431    9.85090419989213    4.37045380892425
H         7.16471433876284    9.74261950763849    5.92227985901649
H         7.35916950279734   11.30487092638409    5.12042084710749
C         5.86490733631449   10.04306534589408    4.19916643541078
H         5.80247658286509    8.99994950078236    3.85424470426352
C         4.41124406989841    8.92868225482149    6.48928861396772
C         3.50623682010392    8.98398553999747    7.55062704538049
H         2.79633435467766    9.79456238327993    7.61588819340343
C         3.48658317470152    7.97791710654032    8.49841536248912
H         2.78503809258661    8.03080274818413    9.31758821834870
C         4.33877155343817    6.89326570500605    8.39137074595359
H         4.29370722359750    6.09718422097275    9.11945344588576
C         5.22295187060849    6.80175842635792    7.31970816729524
C         5.25269458231601    7.82913004103863    6.37885555351730
H         5.94168649412719    7.75254045811000    5.55384683192753
C         6.08951926145913    5.62646178861867    7.15197105640782
C         6.67757037876390    4.96211227105937    8.22496022301298
H         6.51199864848799    5.33910575145037    9.22281929543783
C         7.49057091949149    3.84796752359008    8.04986019908248
H         7.92510064917015    3.37642050465491    8.91850538390272
C         7.75578996907432    3.33777006096464    6.79359340528467
H         8.38824997715135    2.47390230867649    6.66199536809586
C         7.18524338579683    3.97314836683646    5.69830797261864
C         6.36635570197200    5.10171320058145    5.89049071001407
C         7.22183395261375    3.76692455688768    4.27230416868078
C         7.85994463220273    2.87572406759962    3.41811183707059
H         8.48236252589254    2.08675076550476    3.81037195252340
C         7.68442560315897    3.03760732448048    2.05692639814882
H         8.17397182768661    2.35965375736197    1.37396445528830
C         6.89803882241329    4.06247619285735    1.53898873365708
H         6.78879850303270    4.16160248751896    0.46932846174490
C         6.23229582448571    4.95862933507216    2.36564744094523
C         6.40996267227513    4.78024084165013    3.73463614428597
C         5.41709457626497    6.08591997814936    1.88708856676781
C         5.91232619685193    6.97770208848983    0.94220639276555
H         6.88155771779605    6.80068479436311    0.49915870724063
C         5.18414209319061    8.10730520987041    0.60878385410785
H         5.58047417094694    8.81099524554010   -0.10808370468796
C         3.96447888263838    8.35391608801454    1.21005661571467
H         3.42739237822725    9.26646207533281    0.98954287056126
C         3.43033176924597    7.43952881552678    2.11989580498555
C         4.16504204057475    6.31103924143305    2.45324627930168
H         3.78098372281507    5.58747397139492    3.15446858252960
C        -0.55999912075782    8.57732494811784    1.53091654548256
H        -1.06856115042609    8.69877065192702    0.57591735041136
H        -0.37809367118254    9.56835578382256    1.94612113490076
H        -1.22262028459081    8.03936083007836    2.20275104326722
C         0.58802066801528    6.43923984093809    0.76404556037633
H         0.10331116923329    6.48864055856956   -0.20945114351164
H        -0.03047774588431    5.82687786665508    1.41559937197020
H         1.55413296800020    5.95125715826720    0.64009724815644
C         0.76345419195382    7.84827768779758    1.32143818991607
H         1.35054874837020    8.43649160605417    0.60371139991286
C         2.18908527029925    6.55992194183489    5.22418304484731
H         2.01020266215292    5.69742036428299    5.86459863968240
H         1.91343010066109    7.45599246899685    5.77915288489206
H         3.25459911172833    6.61145464530926    5.00935608993937
C        -0.13129720581066    6.55954321691159    4.33730246716758
H        -0.34892158228081    5.84704854730906    5.13170230360540
H        -0.78621068667931    6.33564771740321    3.49941683886291
H        -0.35836946126817    7.55798027290913    4.70994577185160
C         1.34346708603985    6.46616188920081    3.95493487910736
H         1.53791983002566    5.52423094864523    3.42803880099376

