55
CSD_code = UBEXOR | q = 0 | S = 0 | Stoichiometry = C20H28NiS6 | MND = 4
Ni        0.00037547753360   -0.00026487497565   -0.00015876938324
S         0.84298067463087   -0.01989632728575    1.99532749433630
S         1.19617350026565    1.70317468356115   -0.59592148001422
S         3.24053562340396    3.29789973453210    0.98850658173770
C         2.07949102434361    2.02675985180922    0.81576332107553
C         1.95208661344553    1.28438673484066    1.98951586651156
C         2.79735229877521    1.74883297850367    3.04110659143975
C         3.55334363131097    2.81377046640620    2.64724587574097
C         2.82539436628506    1.13023621385806    4.41265556819308
H         3.54845183536669    1.68032460964410    5.02212450099328
C         4.52602353823503    3.62308492636482    3.44594189452887
H         4.93277929995220    2.98982686883116    4.24136093934157
C         1.45472426289386    1.25227066322768    5.08092323898957
H         1.13784935168640    2.29265425708404    5.11489013363992
H         1.50331274066394    0.87112028193106    6.09800906942519
H         0.71035657876801    0.68064083141654    4.53374877288702
C         5.68492578532906    4.11558122676837    2.58201963498637
H         6.40556867167782    4.65127361650394    3.19507367723940
H         5.32236684956175    4.78830525590535    1.80776978323081
H         6.18896290867371    3.27852936253482    2.10465163335590
C         3.27342644465469   -0.33024110646002    4.33894511496879
H         3.35369255640408   -0.74383654374676    5.34128119912919
H         4.24397972486324   -0.40613958109862    3.85314528502378
H         2.55618313671175   -0.92289865708958    3.77827535227279
C         3.79240712853061    4.80657115626373    4.08772623831047
H         2.98560863649065    4.45529183856379    4.72654477579042
H         3.37057498719351    5.44643441295315    3.31595336276223
H         4.48246023145938    5.39379126803223    4.68835607213846
S        -0.84226295075504    0.01936379018941   -1.99564016486250
S        -1.19544459734202   -1.70367549474131    0.59559258886298
S        -3.24036669148049   -3.29795802801834   -0.98856500804931
C        -2.07903064251484   -2.02706586101803   -0.81596630338609
C        -1.95161531468496   -1.28471323125193   -1.98972934520244
C        -2.79712518635235   -1.74896281253195   -3.04121044600162
C        -3.55329950389173   -2.81373556132363   -2.64725357553838
C        -2.82523724032270   -1.13033008072367   -4.41274184212727
H        -3.54840764338017   -1.68033493921270   -5.02215088538001
C        -4.52628184493727   -3.62282688219594   -3.44580453654122
H        -4.93287772143355   -2.98953271588902   -4.24127655511559
C        -1.45465304488434   -1.25249168291731   -5.08116039929269
H        -1.13785230584329   -2.29289849501678   -5.11514729704020
H        -1.50333476124344   -0.87135303649016   -6.09824552372720
H        -0.71018175700726   -0.68090242379059   -4.53408747289635
C        -5.68528637573235   -4.11485382350864   -2.58175117587676
H        -6.40613859039198   -4.65039032863416   -3.19469439500550
H        -5.32290753867813   -4.78759161056426   -1.80742616051012
H        -6.18902845553625   -3.27757480130893   -2.10447181911596
C        -3.27313697799544    0.33018385232345   -4.33894695817083
H        -3.35340536266566    0.74383794157817   -5.34125949310382
H        -4.24365893952636    0.40614996164782   -3.85309318504556
H        -2.55580978181086    0.92274015206441   -3.77828047191674
C        -3.79308087664557   -4.80663664930385   -4.08746740781583
H        -2.98620874846742   -4.45568252776054   -4.72636881311774
H        -3.37140630566951   -5.44653969956477   -3.31564010008797
H        -4.48334871991755   -5.39370916091889   -4.68799498258684

