88
CSD_code = UBEXEG | q = 0 | S = 0 | Stoichiometry = C38H45ClNiOP2 | MND = 4
Ni       17.41861411866629   16.40966148687528   15.43827273105448
P        15.96292084862183   16.27432054878902   17.04940728654455
P        18.78449773588975   16.23156851692274   13.75395316133051
Cl       18.98394544468962   15.83834609844187   16.77851361747881
C        16.15564104804512   17.27607067213283   14.34808703298236
H        16.33173143681191   18.35443743018087   14.47357005149351
C        15.18277984986258   16.92524142934083   13.52824228099055
H        14.90715856709796   15.90636248361466   13.31595472691432
H        14.58952044673923   17.67025098041189   13.00805264272261
O        14.32368551874459   13.63661423849772   12.80171190977952
C        15.65702006558426   19.01305108320817   17.26997912042739
H        15.45254803353421   19.88803625879263   17.88626369440278
H        14.82770583055132   18.86963224587778   16.57843845482377
H        16.55883663592391   19.20850579435084   16.69125151285944
C        17.14829532647734   17.93740712373417   18.96550682631863
H        17.16332428774311   18.91631442991488   19.44344614184080
H        18.02492548769748   17.85465875971328   18.32476723002746
H        17.22248259907801   17.18047065915356   19.74249995761201
C        15.87165707897073   17.77953034975576   18.14336725114958
H        15.01954664398686   17.65837619485834   18.82143400461452
C        15.16943123093180   14.83712044483915   19.37335282808857
H        15.37495008103270   13.99515091515295   20.03303420632418
H        14.18280052087455   14.69163239475523   18.93565490284765
H        15.15093409810967   15.73874614043157   19.98024432485600
C        16.36351118131880   13.55873004156220   17.57562842346451
H        16.76793685244933   12.80931908806023   18.25403635020864
H        17.04378244703891   13.64910223300300   16.72789109760588
H        15.39513945741865   13.21144027032719   17.21948198659305
C        16.23921003694486   14.90126395690845   18.28968835754126
H        17.21292445738720   15.13059067311113   18.73663454757199
C        14.22949553795191   15.94701155319872   16.57746366787886
C        13.11833058445870   16.62688824372692   17.05834027681176
H        13.22513413127847   17.44965467056634   17.74754502422837
C        11.84876829923776   16.25581889708882   16.64844773612036
H        10.98873519277969   16.80281269965094   17.00783436400452
C        11.67289988013342   15.18117502649269   15.79986533883938
H        10.67799252709387   14.89520969403034   15.49164438031342
C        12.77501353019336   14.47550665298164   15.31646257974161
C        14.04656000170084   14.89639386746346   15.68198720044616
H        14.91771454051029   14.39647567348860   15.27951884079495
C        12.55854985256124   13.27346479769529   14.49721050192240
C        11.55141381775719   12.37900112123824   14.85820677257079
H        10.97178938446686   12.59299600803699   15.74377466572058
C        11.28028490000338   11.22023490264973   14.14320182223261
H        10.48924520820533   10.56664206506587   14.47892150958345
C        12.00577816835822   10.90118741326728   13.01383906068207
H        11.79919761561680   10.00941178402648   12.44320782746634
C        13.01794484093124   11.76817013104958   12.62780408679846
C        13.30052008006304   12.93328162066066   13.36691101513010
C        15.69285647110559   13.30245374060091   10.76785366955281
C        15.87642059851711   12.42320849746448    9.70115592092730
H        16.64686464439504   12.64987668337911    8.97934582104980
C        15.13018624354912   11.26313476942116    9.54335495738875
H        15.32528347561780   10.62203434281034    8.69687171077215
C        14.14831154698583   10.92579542044276   10.45200738054986
H        13.55649586423680   10.03123668700041   10.33780162621792
C        13.93994260490306   11.77819105393943   11.52683928538480
C        14.70861356830371   12.94704012838427   11.68924233119713
C        18.03929323821705   15.93650994396548   12.11277503102689
C        18.33459174883838   16.63450897020157   10.94940185969103
H        19.03816166803744   17.45202954079259   10.95436645757874
C        17.71591882844226   16.28973564747899    9.75937158021958
H        17.93163216021031   16.85142371421171    8.86162565458116
C        16.84126027631875   15.22286954284949    9.70734966599133
H        16.37050279647249   14.95696705552293    8.77233139424937
C        16.54094239864549   14.50007139469021   10.86209201635779
C        17.11462708485955   14.89660611493368   12.06243626799109
H        16.85458480196115   14.38515440642110   12.97948447261794
C        20.94598990950092   17.80669123501817   14.60682951093855
H        21.44252781835660   18.77509669001026   14.55638944873479
H        21.70497926663305   17.03346050085955   14.51684526879397
H        20.47664426139828   17.71239310852575   15.58462072264589
C        19.03944815816212   18.96371364299118   13.47500096967621
H        19.63838559712345   19.83243855070004   13.20337865126809
H        18.62157978183866   19.13486187648007   14.46676065017590
H        18.21817062720121   18.86843529453887   12.76570135309054
C        19.89965249632684   17.70286060358326   13.50002235417466
H        20.40710545361042   17.58550874236264   12.53591497645208
C        20.89271128209964   14.71561551957369   12.59725651443052
H        21.56418895428571   13.86455482478449   12.70356110704602
H        21.50132303588055   15.60551454945574   12.45813259687875
H        20.29083132652180   14.56302756742781   11.70245873740444
C        19.28764932233474   13.49893482197914   14.09346409764197
H        20.00219547671850   12.73604232669678   14.39833942462609
H        18.77352673756496   13.14821574305770   13.20037770860513
H        18.56143587540019   13.62261754985858   14.89795115234846
C        20.00757419646827   14.81882907859736   13.83369412740510
H        20.61856494164488   15.04135035370082   14.71554019229323

