116
CSD_code = UBIDUG | q = 0 | S = 0 | Stoichiometry = C52H58ClN2P2Rh | MND = 4
C        14.01002863740856    4.62127046396228   16.24025793821413
C        15.44905544688384    5.26353275628799   17.83543250155202
H        15.99510125075216    5.18715150099189   18.75296639905463
C        15.42102148260819    6.23846015247213   16.90418660822305
H        15.96301530513353    7.15862210113827   16.83986884612959
C        14.33986072912263    6.55580086615709   14.72053244869273
C        13.78805823201558    7.84324378447279   14.76181458446690
C        13.63486360160461    8.53715942801755   13.56939955813950
H        13.20754324865094    9.52746474753947   13.58032770353362
C        14.03048370237600    7.98551295038650   12.36829278466949
H        13.90473925005817    8.54195704971937   11.45131856180107
C        14.61054435706525    6.73404206775955   12.34760356370269
H        14.94870713505530    6.32391666248944   11.40863600329865
C        14.78191023161006    5.99753383907174   13.51315759406431
C        13.40914819106830    8.53061678209417   16.05462910649454
H        13.47145682706141    7.81328386344549   16.87771879041114
C        14.38623900740623    9.67538928271131   16.34401459579245
H        15.41303939701312    9.31852637153733   16.38344082022290
H        14.14612458907498   10.14028814043076   17.29785905241734
H        14.32566214897997   10.43309824278694   15.56662329701535
C        11.97849321080818    9.06897326972481   16.01035327873831
H        11.89158232989867    9.90052603103127   15.31617315883684
H        11.67999828095286    9.41776180175629   16.99684110487754
H        11.29149956123247    8.28809402411591   15.69641268306727
C        15.50812771698507    4.67444526629740   13.43193889036300
H        15.53405360603767    4.19802903929648   14.41578872575172
C        16.95558295973542    4.90315172351079   12.98743478390274
H        16.99838666446185    5.31225249827760   11.98070442022118
H        17.49530785969542    3.95923979525373   12.99838190027205
H        17.45838454150153    5.59652263494153   13.65994131312786
C        14.78795868462550    3.70467969246814   12.49446527934018
H        13.79009751456038    3.49018856021095   12.89405196611219
H        15.33199400538444    2.76470312801502   12.45214283986437
H        14.69055453383463    4.10231504812433   11.48693126406814
C        14.54915273264264    3.00257068256336   18.05285806135784
C        13.40966266998964    2.58958252147830   18.74539313095261
C        13.42228145880336    1.34337183047629   19.35855576775621
H        12.54475977700870    1.00152749004759   19.88600760711943
C        14.54006678961981    0.53713048071196   19.30341125460781
H        14.53432996719314   -0.43074653136318   19.78318427269568
C        15.66677955263590    0.96848750938859   18.63170615652800
H        16.53546897426007    0.33015020565812   18.59284230712498
C        15.69611415605469    2.19952675958176   17.99286802777759
C        12.17751062658530    3.45520079376228   18.84993078867592
H        12.36804093208305    4.40360460238247   18.34151172821479
C        11.83695054420107    3.76661676662400   20.30830152272157
H        11.56801235086086    2.86397642407116   20.85075463612833
H        10.99477129156638    4.45499325664149   20.35011039108306
H        12.68618948940605    4.22668011997749   20.81017425853739
C        11.00475486641039    2.78095847613418   18.13817775400795
H        11.28020744513503    2.61788267490863   17.08620196805012
H        10.12131284496892    3.41646428969248   18.18039073661727
H        10.76686088118884    1.81930756040879   18.58577579784692
C        16.95216919414203    2.61418502345938   17.25988582414920
H        16.77454352935378    3.55380425879503   16.73023096305051
C        18.09844705904535    2.83686758614695   18.25124350225277
H        17.83558075885161    3.58812907314244   18.99386754618635
H        18.98816561081540    3.17305148748423   17.72290126305371
H        18.33834505583372    1.91439517146685   18.77425543246429
C        17.34244049787506    1.57534862297208   16.20687892323663
H        17.65999129072672    0.64375887205072   16.66723544177115
H        18.16272474699215    1.95429696482999   15.60019768035358
H        16.48866368427239    1.37314078801491   15.56500941323925
C         9.68438420506390    3.69908915931442   14.63686275939397
H         9.17695939921230    3.29812115682774   15.51988169894220
H         8.94640118709882    3.99139996817021   13.88795206349034
C        10.01428335394798    5.84528529737562   16.53608383496310
C         8.62642984548316    5.88275263938645   16.62683036699870
H         8.02103520951734    5.45057247570806   15.84209276726184
C         8.01645299203159    6.47395617329561   17.71869914759468
H         6.93788249568181    6.50007061476187   17.78230800392528
C         8.78230253108651    7.02799964393252   18.73181440210854
H         8.30074012960385    7.48180467557708   19.58553566709977
C        10.16455271266230    6.99569260183359   18.64882668233875
H        10.76517119413376    7.42558735651303   19.43759199130291
C        10.77274698412366    6.40601809534887   17.55673694098130
H        11.85009311175172    6.37212915224792   17.47864854163964
C        10.65969502788696    6.18791567871782   13.77593090625540
C        11.39412962562078    5.90756486921154   12.62928396772944
H        12.08794207718525    5.07542456166337   12.64625967741565
C        11.24188069179040    6.67586518733974   11.49196903752901
H        11.80481886579761    6.43816961109155   10.60158955294677
C        10.36874593392639    7.75128076151840   11.50056511457518
H        10.25108848181301    8.36195180881753   10.61717997551984
C         9.64632587456551    8.04605741493878   12.64490453126741
H         8.96663842465619    8.88634647896486   12.65339266819455
C         9.78207577804081    7.26499851843081   13.77925461555593
H         9.20226997906979    7.49546664902668   14.66242526386778
C        10.25258967036521    0.87644535890416   14.57846244359206
C        10.91387358267654    0.04542149839156   15.47287579004129
H        11.87758397966631    0.34590184793304   15.86261389374710
C        10.34600471231418   -1.16279846476371   15.83911907971353
H        10.86191333287158   -1.81185156975507   16.53162883036729
C         9.12044007132474   -1.53904617824440   15.31673255813182
H         8.67614826329672   -2.48163284613536   15.60280679727906
C         8.46026707843556   -0.71075181500867   14.42108540390737
H         7.50586288362190   -1.00990580433926   14.01119833190482
C         9.02392854507853    0.49439795690528   14.04957341514589
H         8.52005918559993    1.14233552664108   13.34384706307248
C        10.91594651444158    2.33081426238360   12.31729743360246
C        11.75905342827947    1.35269100808872   11.79076584116583
H        12.35905550766843    0.76237971188958   12.47254281427899
C        11.83462729160384    1.15425430531848   10.42703965167100
H        12.48726171633262    0.39256507158663   10.02626741048963
C        11.07627394837506    1.94013619216072    9.57240752177253
H        11.13239946512812    1.78848364918407    8.50424669485727
C        10.25285533842503    2.92545898192510   10.08852137560863
H         9.66782891237717    3.54527734004230    9.42363573668555
C        10.17244145469492    3.12602488764853   11.45614753042222
H         9.53367042704498    3.90980363697352   11.83760310657022
N        14.58847026532036    4.27696895464134   17.41758023747956
N        14.53929186835449    5.83519322531855   15.92817932638038
P        10.90280559829515    5.01951651322095   15.16405422200732
P        11.00005104687572    2.48211167141389   14.13293074509570
Cl       14.04676950086331    1.76402503852936   15.19872055366295
Rh       12.64895727972925    3.57934216113104   15.21889148843954

