33
CSD_code = UBIFUI | q = 0 | S = 0 | Stoichiometry = C10H16N2PdS4 | MND = 4
Pd        6.44896254766043    2.37263385703816    7.47705717695342
S         4.56513768415220    2.26376915049120    6.10783194752874
S         7.31818819975448    2.78123380580545    5.35194876503704
C         5.67516739438096    2.71863143895825    4.89409962301487
N         5.28608491896505    3.00015595441138    3.66169956771477
C         6.19652162838946    3.39604515568800    2.60504165736989
H         7.03507079453479    2.69805113722298    2.54946734800086
H         6.59882661622233    4.39202838492458    2.82227754514041
C         5.32105234520381    3.39805793328318    1.35527943435792
H         5.29868921953975    2.40217150032019    0.91216133307925
H         5.67357202274974    4.10497214379997    0.60819373648369
C         3.94121050829323    3.75702109439111    1.90638894999232
H         3.87762215472506    4.83067027239238    2.08522663976927
H         3.13195247449014    3.46442081283645    1.24190964924424
C         3.90194567042879    3.00327229747080    3.23213036328311
H         3.27442440638038    3.47903825656582    3.98911080638039
H         3.55530403618446    1.97194892850757    3.10129558573538
S         8.33485693534825    2.47205275824632    8.84198961713004
S         5.58129720522602    1.95474476479690    9.59828666603561
C         7.22427870219114    2.01938227492313   10.05616364758821
N         7.61332180560276    1.73820061608023   11.28864009462803
C         6.70286190504109    1.34245207836561   12.34535347214967
H         5.86429680130164    2.04043492878385   12.40084041150870
H         6.30057153988288    0.34642003231419   12.12828903227272
C         7.57825749224062    1.34058237288803   13.59517826854031
H         7.60057394702227    2.33650456070236   14.03822288699551
H         7.22574328643742    0.63371992881791   14.34232539563370
C         8.95812815205358    0.98160583696976   13.04414858318536
H         9.02176634779205   -0.09207181538817   12.86547493085080
H         9.76733514572970    1.27431071651778   13.70864736124548
C         8.99743330723419    1.73518469921431   11.71829674042653
H         9.62499686013028    1.25932078880077   10.96141660159046
H         9.34404794471098    2.76653333385955   11.84900616113358

