125
CSD_code = UBIFAO | q = 0 | S = 0 | Stoichiometry = C55H64ClN2P2Rh | MND = 4
C         2.22026215240116    4.64069367231461   12.77441484453123
C         4.16726187958702    3.61136130775821   12.34266442774114
H         4.82129647932644    2.78839863834107   12.14178529020442
C         4.41835985145210    4.93273438523992   12.43695012720800
H         5.33723935854861    5.47597373504423   12.35290902336904
C         3.05428677657084    6.97036602548485   12.50454861919996
C         3.26611352553087    7.49086350332311   11.21970117941830
C         3.12353161493945    8.85915444751526   11.03006843522349
H         3.28011369518066    9.27683522761900   10.04832229439548
C         2.77751569153026    9.69385582213957   12.07072281249970
H         2.66332218913158   10.75454484813760   11.90069912979190
C         2.58622373380822    9.17123843057851   13.33402897962804
H         2.33001090693496    9.83633856082647   14.14216495314710
C         2.72336783494728    7.81105591748338   13.57610797514758
C         3.65850728502769    6.64518229851342   10.02837572172304
H         3.60280020007494    5.58683859038472   10.29058740289092
C         5.09956292603513    6.95923267547312    9.61243038779510
H         5.18779880060065    7.99287535298521    9.28659044873968
H         5.39851508235502    6.31326602141823    8.78953977439591
H         5.79210774837471    6.80611268301662   10.43795130086584
C         2.70659879981610    6.86185327315411    8.85075252519096
H         1.68296494292666    6.69536854991267    9.17544436981427
H         2.94539835791896    6.16171866733546    8.05274579902310
H         2.78673112337937    7.86892264996078    8.45105198890893
C         2.59266631938277    7.26484687551813   14.97984684727400
H         2.01340883606381    6.32948287545216   14.92504280247960
C         3.99349101368032    6.97921481370900   15.53114878778550
H         4.53884223960766    6.28182934571906   14.90029440105487
H         3.92711184676138    6.55863833116097   16.53223609390211
H         4.56376405222562    7.90575868339269   15.58120095709751
C         1.85582531873288    8.18780478311119   15.94876324200872
H         2.45640848449196    9.06000869627138   16.19933644987982
H         1.65436803999459    7.64725516498025   16.87159888394229
H         0.90751801299324    8.51797207348162   15.53333365052735
C         2.17694145319840    2.19443800520073   12.24222609132120
C         2.36664850240919    1.08718310649652   13.07666149957282
C         1.78258197302538   -0.12317351259646   12.72586857483219
H         1.92433175045394   -0.98393893914599   13.35990684836674
C         1.03397091528893   -0.24751280363805   11.57465446749006
H         0.58735109276880   -1.19699646291504   11.31744687273199
C         0.88229646635866    0.84125974744568   10.74096530935265
H         0.32513206993307    0.73255900678874    9.82432642477924
C         1.45208028357785    2.07049224437135   11.04656615360897
C         3.21207286294687    1.13872695160063   14.32536232834931
H         3.46695424789797    2.17777580484824   14.54040665801810
C         4.51364443106912    0.35669459084563   14.12394544956044
H         4.30522058827733   -0.69145367935144   13.92266807875543
H         5.12694737958878    0.42080296575122   15.02014587756778
H         5.08468348505831    0.75312228308717   13.28727895319330
C         2.44851760797666    0.58385606897954   15.52927606108644
H         1.46257347585470    1.03833469468090   15.59439048037255
H         2.99091765070607    0.80213220792613   16.44615879525228
H         2.32552803329078   -0.49342296025655   15.45693443955351
C         1.35345565000144    3.18419237211883   10.03360484361519
H         1.58037986093709    4.13940152641178   10.50977543315880
C         2.38667890046696    2.93712630293309    8.93002900020749
H         3.39580581085697    2.91878716939345    9.33978939202175
H         2.32854233262761    3.72866379209084    8.18752583787524
H         2.20170481991349    1.98415873029789    8.43728559198677
C        -0.05073062949921    3.31721494705788    9.44485836678137
H        -0.29244799641193    2.50098117211787    8.76791774332189
H        -0.12083984846092    4.25085310431931    8.89342019295169
H        -0.79065395961382    3.34868688714344   10.24186099685669
C        -3.03776364259373    5.41596238609379   14.49982421259785
H        -4.06311982453812    5.46428187825147   14.12148895832002
H        -2.85045429881482    4.38860208729991   14.82737155850355
C        -2.86328390240603    6.37388242733872   15.67039124789784
H        -3.23865326396869    7.36088628501335   15.38628564071684
H        -3.45977668051938    6.02746156485159   16.52128579497249
C        -1.40429144342442    6.51819354291881   16.08802441319947
H        -1.34512732319620    7.26494335907843   16.88482321559856
H        -0.83193866186691    6.89726819850852   15.23402143373485
C        -0.76663380819112    5.21893228259522   16.57091189520283
H        -1.52111447048391    4.58987682560519   17.04792021120845
H        -0.00936175481842    5.46164877279625   17.32210615780114
C        -2.17251940665116    7.55439313428774   12.89116395700816
C        -3.45494897273771    8.02998763355007   12.63868384911882
H        -4.27648427845232    7.33397394051453   12.53118263057369
C        -3.67692834110563    9.38856895318180   12.51067348419197
H        -4.67441761793684    9.75424760486921   12.31069208846646
C        -2.62392827021204   10.28158188860166   12.63386935703505
H        -2.80265245854338   11.34217837165488   12.52910302089226
C        -1.34500907077205    9.81316905699414   12.88347266755162
H        -0.51937095320003   10.50479405874717   12.96994175493206
C        -1.12195022139321    8.45500756811748   13.01500521496117
H        -0.11881345536475    8.07865705928520   13.18430455786679
C        -2.76496469235567    5.02560682445537   11.74530907432902
C        -2.91310760090707    5.67928162790830   10.52635126570832
H        -2.51112465712282    6.67389940261743   10.40050716802771
C        -3.55492436249702    5.05338960010967    9.47352048380977
H        -3.66574565042403    5.57039711959352    8.53115744421031
C        -4.04855731623240    3.76783674464583    9.62029129987279
H        -4.54745355013952    3.28038503281885    8.79499566444438
C        -3.89385522724481    3.10622865185796   10.82709475401056
H        -4.26960117416248    2.09954582055702   10.94671864518900
C        -3.25349870093032    3.72926992819296   11.88243762329019
H        -3.12435924130039    3.20140144000908   12.81722989583270
C         1.49718402533542    3.69185881620364   16.37910175344427
C         1.25329837061958    3.13889449593029   17.63404193493116
H         0.24399442220980    2.94415200639002   17.95859896443247
C         2.29594485944158    2.83385361236938   18.48800337973366
H         2.08603737552855    2.40282365279589   19.45660562452247
C         3.60626539418991    3.08357021452847   18.11176511276403
H         4.41854994476872    2.85099034428736   18.78489498777595
C         3.86279495015820    3.63521486564172   16.87042677532108
H         4.87996517939861    3.83649366648480   16.56497355986804
C         2.81415151586963    3.93217479892028   16.01587082118490
H         3.01538052192536    4.36870311732075   15.05143853592164
C        -0.84382139529144    2.68292845055413   15.11380010859475
C        -0.87707550565232    2.14209391874759   13.83030282790404
H        -0.37192957074076    2.68097816639074   13.02894419051164
C        -1.55856210792092    0.97005934770888   13.56390806616917
H        -1.57186387347034    0.57388993290165   12.55958923411111
C        -2.22978448232730    0.31851249552907   14.58485518334143
H        -2.76607578993214   -0.59822896856189   14.38781694304437
C        -2.22654634435968    0.85821872184345   15.86008753672440
H        -2.76544611853719    0.36452838584936   16.65649837286200
C        -1.54244904027621    2.03188545916953   16.12535768476549
H        -1.58137967119844    2.43179904775470   17.12805663430129
N         2.81430589010130    3.43850601000832   12.53178506030082
N         3.21892538248953    5.56103739132199   12.68530098157879
P        -1.83298304347190    5.77632487016450   13.12407825247264
P         0.13500288533410    4.23658870624385   15.24535899799769
Cl        0.20344514004308    6.18450418563778   11.14257578844490
Rh        0.32122104945145    5.12176096416626   13.18288535655590

