65
CSD_code = UBIGUK | q = 0 | S = 0 | Stoichiometry = C28H29N5O2Pt | MND = 4
Pt       -2.45683544476451    2.04346220915472    6.99703200831753
C        -2.46684141214672   -1.47099884870584    9.17300225778660
H        -3.01896603662354   -2.19750823508313    9.73186892920725
N        -1.94438338810395    0.32368160198250    7.94722251869494
N        -3.61794499523967    3.62150093217047    6.46162245274807
N        -0.83328467165832   -0.37724842509699    8.17860096721308
C        -6.53533229440138    1.87727506491972    7.96035164459414
H        -7.42868314847487    2.44255817290909    7.73480861896639
C        -0.84128848325668    2.30477387978857    5.78663160735237
C        -4.14777099183610    1.59154390479872    7.89418723697708
C        -5.28098195385794    2.33613295885423    7.57249165669911
C         0.13319286367627    5.88188195001708    6.40971410895238
H         0.14263911115002    6.85885393647971    5.92179627222378
H         0.53455211441747    5.15178315877677    5.70620593992469
C         0.15306710744612    2.46198826671459    5.09562910692145
C        -2.96471913041532   -0.31615642688038    8.55667252778398
N         4.75986589519069    3.35678944656637    2.03011082630733
C        -1.11357161231738   -1.46368135331912    8.91743911007376
H        -0.34866689745022   -2.15359578675502    9.21330602420451
C        -5.58442801818270    4.68205024112170    6.40426659263108
H        -6.62167548016290    4.91273021239067    6.53027157145715
C        -5.51449769734716   -0.12991879466419    8.87142546551772
H        -5.62861378355665   -1.09641382120688    9.34193873928719
C        -4.91481980332296    3.52526258500062    6.82247785343744
C         1.30900201734117    2.67113907958590    4.32292338464596
O         5.74578332869035    3.79776617774663    2.59675939628756
C        -4.26241106398296    0.33258821022513    8.48031496778476
C         1.31861663807425    2.38224085727892    2.94923024703180
H         0.42552939728686    1.98355179024848    2.49104541528465
N        -3.45363259603506    4.79929908298680    5.85708195779242
C        -4.61981375824457    5.46450399436024    5.80924216931907
H        -4.69360514943004    6.43635297936958    5.36352339961421
C        -2.14358738595391    5.27010936069907    5.49592030970567
H        -2.25178193967672    6.19277650569445    4.92320533979885
H        -1.65758384976588    4.50834757671463    4.87684914224780
O         4.71614614425798    3.10770267163979    0.83739463666573
C         2.44707686580792    2.60418032041504    2.19823355008998
H         2.47080948079080    2.38929171152284    1.14074321489516
C         1.25476072367343    2.46555149907597   10.79407492478092
H         2.14011281776658    2.95648175817837   10.39632452013315
H         1.41172003366607    2.28202020776147   11.85378421023932
H         0.40877379005806    3.14005149860909   10.68375556710028
C         3.60091840651296    3.40914140960449    4.17267375046242
H         4.50142603664049    3.80605637671359    4.61609705512689
C        -6.62928643618048    0.66059152385131    8.62368346081244
H        -7.60287751971214    0.30373782301479    8.92835050103607
C         2.47183829305103    3.18534677690541    4.92108175221791
H         2.46495082974307    3.40619707095136    5.97850202282242
C        -1.29985143294170    5.49397012102239    6.75484902702555
H        -1.75985920133172    6.26406191985295    7.37830630236721
H        -1.29029499321195    4.55113688382308    7.32259138575500
C         0.45872329038457    0.12111513688661    7.78870322264252
H         0.43357308724451    0.35083715369324    6.71847589028059
H         1.19847936481777   -0.65791764723900    7.98146643988654
C         0.99015824642886    1.15895016800722   10.05647763658503
H         1.83177709473022    0.47834692474232   10.20777165998611
H         0.09831244399034    0.68663649946576   10.47477697623284
C         1.01249547794347    5.91991362417640    7.65287614981205
H         2.02978681462985    6.19883960766643    7.39067960573303
H         1.03207375794021    4.94182707920101    8.12805557738174
H         0.63344214013886    6.64283943229824    8.37170280716377
C         0.79236158311689    1.39999287105142    8.56316268662681
H         1.69557099923627    1.83479271987316    8.13454431189762
H        -0.03108755012937    2.11241167348659    8.40863441107834
C         3.59124192351728    3.12057273879553    2.80755697631345

