69
CSD_code = UBIGIX | q = 0 | S = 0 | Stoichiometry = C22H42Cl2HfNP | MND = 8
Hf        4.05568480616826    3.74120244911627   10.02344812098895
N         5.65989675436977    2.79521211340350   10.57403964857257
P         6.72923406260676    1.74906957902511   10.15395536100207
Cl        4.87218769221159    5.40263684141268    8.62569157781042
Cl        2.87945489781953    2.50938807360779    8.45691363565447
C         7.46961093938213    2.08641001413201    8.39954691054147
C         8.12300827779971    1.90156229513490   11.48104665452095
C         6.31529348553580    2.34373219873463    7.42812991213827
H         6.67800035263307    2.91768957811419    6.57576924622051
H         5.53372418286806    2.93498048250590    7.91765077874615
H         5.87514985540870    1.43139900011993    7.04123898266455
C         4.92995961028379   -0.02839924095705   11.30248504899703
H         4.28525792649737   -0.90193908190498   11.21193934226449
H         4.31293880369848    0.87191191001980   11.19869545122092
H         5.37349289259614   -0.04190317421864   12.29211962871850
C         5.20725517954253   -0.27152287267391    8.88807765082848
H         4.59613808423036   -1.16881815682420    8.99039915708006
H         5.87045629918678   -0.43057477758306    8.04388946095102
H         4.53877022031088    0.56284505275204    8.68205017795915
C         9.45284706103449    1.22682421416086   11.16551390920190
H        10.09955332217348    1.29440171091747   12.04125136227545
H         9.96735828816046    1.71529268994140   10.34266865727351
H         9.32490015639359    0.17572359399942   10.92424020746893
C         5.97718334583448   -0.03527938716154   10.18763522524567
C         8.23676295016202    3.40348014633469    8.51940464151116
H         8.48132264437493    3.78076955887972    7.52674807275732
H         9.17011271716521    3.28036154889354    9.05976477396056
H         7.61530411230322    4.14754688960348    9.01898762766010
C         3.43820098995773    3.91088337747227   12.35101380234210
C         2.68359445299321    5.56725451868927   10.92860674775191
C         2.28627551796837    3.42260958777025   11.66422666374996
C         1.82109206863599    4.45046372722100   10.79561783685846
C         3.69532941668718    5.23321175740280   11.87359187302958
C         8.33171368161433    3.39754913761335   11.73657023975990
H         8.73833936433323    3.55134847930652   12.73540636020323
H         7.37202134848117    3.91095122891411   11.66823154864097
H         9.01985709765172    3.85017117654907   11.03170707008340
C         6.97484619912521   -1.17495952906729   10.37012627578552
H         6.44647396137991   -2.12514026556849   10.28448280011714
H         7.45426504028817   -1.15525149085397   11.34389167341363
H         7.74437950838195   -1.15018244565993    9.60368868778240
C         4.12106136430092    3.26226896002781   13.52207961299679
H         3.67810274291811    3.61750201140114   14.45570653728357
H         5.18173387423320    3.50554623491304   13.54011738556737
H         4.01800037400946    2.17964318664717   13.49217318922515
C         7.55636491363187    1.32211641490073   12.77833951757812
H         8.19758956709591    1.59703618421513   13.61629983873120
H         7.50124172538485    0.23843981069239   12.75739180862016
H         6.56676291326023    1.73473354051907   12.95487165310226
C         8.38830931097029    1.00487314459669    7.83957416609084
H         8.80353924812008    1.35278617985540    6.89335425923709
H         7.85251101719018    0.08102875278275    7.64246733890679
H         9.21448754384989    0.78862089836278    8.50910423478818
C         0.53577932620996    4.40371612573981   10.01883806092980
H        -0.30127000054750    4.70282027866023   10.65451071224680
H         0.33556237620713    3.39796310821873    9.65188289688325
H         0.56413553309444    5.07929359268130    9.16504748933886
C         2.47643598948205    6.92767502758701   10.32560107401473
H         1.86677241023464    7.54433783601199   10.99059375180324
H         1.96446528165041    6.86333059729341    9.36646307116064
H         3.42568712040615    7.43766275109382   10.16984317598218
C         1.57605603803758    2.11678845771533   11.89186045172760
H         0.57716399046871    2.29419555865215   12.29434089090793
H         2.11674585956332    1.49161803086208   12.59862498584869
H         1.46356159316016    1.56277087483374   10.95715077242531
C         4.77579610540528    6.16492960935534   12.34729745194228
H         4.35763086548683    6.95442386616118   12.97539191371959
H         5.27584375880680    6.64004461281160   11.50066592160312
H         5.52348158911346    5.63052184413806   12.92974503358014

