55
CSD_code = UBIHIY | q = 0 | S = 0 | Stoichiometry = C21H28Cl2NOPPd | MND = 4
Pd        3.44474932908853    3.72030210354416    5.31986877329034
Cl        1.48639361279075    4.19144520881594    4.35898035164756
Cl        2.70176209868027    4.38332264182857    7.38371979845306
P         4.12188361583503    2.74513587667656    3.46078276466827
O         5.38344624072243    1.76541366984905    3.78715752577311
C         6.13874765522590   -0.03213600031482    5.08447203579453
H         6.12888928872741   -0.61635423679842    4.17707712207347
C         1.80336423907478   -1.08021701080728    2.23503855614406
H         1.00795745097493   -1.73742955705559    1.87916833827227
H         2.62080966324796   -1.70998148697706    2.59510857013240
C         2.30268909052914   -0.20822647476881    1.08648712910762
H         1.47041617638091    0.37988019144270    0.69426306250756
H         2.68040822330850   -0.83707252852262    0.27740114955646
C         6.92721857559716    5.64984899033184    1.16920651272247
H         7.74284626860325    5.44177570807069    1.86565407284619
H         7.28117458746405    6.39357391690950    0.45310692428076
C         5.73027531168180    6.20071260453814    1.94040583917006
H         4.93706694063022    6.46802315563224    1.23904322201618
H         6.01801546356075    7.10423983003936    2.48056513623197
C         6.54849366412648    4.36528078861944    0.43742026500830
H         7.41562289407747    3.97209567795244   -0.09690387586297
H         5.77177590918026    4.58343556545877   -0.29900535029095
C         1.28819568075888   -0.21398915676604    3.38181045062730
H         0.94677085369833   -0.84552717828314    4.20378976364339
H         0.44031569735764    0.38199763467405    3.04003836807868
C         5.20526765305873    5.15493602422080    2.91828263573914
H         5.98358912752164    4.92152123757764    3.65616650912080
H         4.32340985956874    5.54455630494928    3.45775351331225
C         3.40534554683076    0.73930802620429    1.55807584102184
H         4.27088778810766    0.16035526647555    1.88976762670545
H         3.71794681856905    1.37558841369674    0.72758969413659
C         2.39292260895595    0.71800042307013    3.86643698343152
H         3.22372691314127    0.11776555272812    4.25471979628971
H         2.02194257790756    1.36229703771003    4.68278742015279
C         6.03415962750847    3.31625431217156    1.42151851542115
H         6.82339330054482    3.07065853753880    2.13514415023331
H         5.77094661610873    2.40088705896697    0.88981388610654
C         6.42009043317463    2.37111334817928    8.50798572393184
H         6.82198896105632    1.96662828398925    9.42507822833582
C         6.70621204552021    0.17804819244787    7.40477854812863
H         7.11679141541342   -0.22439520302603    8.31813814715992
C         6.62053739539666   -0.58680763649690    6.27387901515798
H         6.94481004164088   -1.61559608326659    6.28038503158124
C         6.07643747408834    3.68970840943581    8.40272168032457
H         6.20998822477478    4.37610854171248    9.22288894905816
C         2.89078389078175    1.59351258334158    2.71097680655851
H         2.06615575809373    2.23206637478578    2.37378278082269
C         4.82683817717473    3.86601500825864    2.17567469287583
H         4.00959512146056    4.08429673043274    1.47734828051322
C         5.47419699025966    4.14458643485582    7.21905921624000
H         5.19230223637125    5.18504960405452    7.10699406048286
C         6.28115705554622    1.51871356452299    7.38815587797772
C         5.69870780776606    1.27053008093241    5.03006119663854
C         5.70768029564332    2.07021176884018    6.20779654659663
N         5.25329970668945    3.34793186759044    6.18728214005689

