41
CSD_code = UBIHEU | q = 0 | S = 0 | Stoichiometry = C15H20Cl2NOPPd | MND = 4
Pd        8.66817809190898    9.34416420551307    0.78862917901248
P         7.56753559767456   10.85830214651730    1.95853534423135
N        10.08412535387038    9.21897470619101    2.25923418372628
O         8.56664713990467   11.52067637659793    3.06341903198442
Cl        7.12424303502899    9.42619102079263   -0.81871610783658
Cl       10.05706530021979    8.07040360067064   -0.51399452859598
C        10.77224956242867    8.09313282706184    2.17890243084831
H        10.21572560801485    7.18912299004140    1.96110507418711
C        12.15822282186791    8.04263818743659    2.39610818543229
H        12.67356463177375    7.10187545746763    2.29120494295514
C        12.82900824217442    9.20051045211768    2.67356867582035
H        13.90351304488962    9.21598577681784    2.78006111480086
C        12.10597809971742   10.40120898088440    2.86057948464755
C        12.72779695898851   11.60251685610281    3.24632005997177
H        13.80043537769365   11.61647897146680    3.36445419560901
C        11.97773314208280   12.71990258838122    3.49088099663107
H        12.44854315419085   13.64366628481268    3.78855509188317
C        10.58444912842261   12.66852325690432    3.38695309625508
H         9.98936704226095   13.53286247709126    3.63918359362395
C         9.93906136886659   11.51786065781073    2.99615551478215
C        10.69630440752186   10.35797308816042    2.66842550281811
C         6.22778206503382   10.23807113068866    3.06015950737016
H         6.03909629985069   10.95069418652113    3.86986873227886
C         6.76276769596308    8.92103309995986    3.62226635276035
H         6.00981098810222    8.41983594864675    4.22747433943773
H         7.64456401585877    9.09460661370630    4.23986070413299
H         7.04131150943816    8.25547859208872    2.78908166581618
C         4.98252311538535   10.00351311361339    2.21399873735666
H         4.24293002621863    9.43499896733658    2.77470025532580
H         5.24971998349956    9.43924411535522    1.31864433735666
H         4.52934855368281   10.94240593233894    1.90489314279253
C         6.99291417188341   12.34305293377837    1.01342332770819
H         6.20661779386763   11.98491399901753    0.34219760374639
C         8.19502259315723   12.77714194511315    0.17244259655427
H         7.90339706378731   13.52570473652630   -0.56095714166090
H         8.60839662325234   11.91110563243048   -0.36742959378675
H         8.97675726241039   13.20070415424908    0.80452155960102
C         6.47606707418102   13.45703619118036    1.91350270685324
H         6.21374896024022   14.32790964652793    1.31573656606924
H         7.23917835254982   13.75137664082804    2.63149571918851
H         5.59219874221174   13.13990151124564    2.46225381834887

