66
CSD_code = UBISIK | q = 0 | S = 0 | Stoichiometry = C27H33ClN2O2Ru | MND = 9
Ru        3.68032076662758    1.79857136971715    4.03666598414542
Cl        3.23184810963091   -0.39785833678042    4.67239475535110
O         4.70758718360575    1.87867748483215    5.84534613245066
O         5.38544462998673    0.99803561969349    3.16905715700966
N         6.15852356104968    0.81960501068659    7.30074229734968
N         7.22685088098618   -0.01924031785988    7.23971296084297
C         5.69936155732503    1.26314110577179    8.54500336597630
C         4.45966621284061    1.87723052885104    8.68947839108632
H         3.82655363600019    2.01797245135858    7.82848770626573
C         4.04542882736316    2.29061761558386    9.94238338175247
H         3.08063534797162    2.76404113433207   10.05253040394997
C         4.85121764401236    2.09819483450171   11.05187948123569
H         4.52007562899881    2.42547336367750   12.02629698169052
C         6.08168604421936    1.47854872992684   10.90557246310297
H         6.71309481144350    1.31957925455913   11.76734969976634
C         6.50880964454544    1.06096504211515    9.66040950159802
H         7.45885625523384    0.56941099599299    9.52790636413401
C         5.66328605586462    1.07545870503993    6.05612394043383
C         7.44906875228341   -0.30747985165933    5.99052997515473
C         6.50453085475200    0.36028954868690    5.13889630184729
C         8.54122459919961   -1.26287741103296    5.66328943674846
H         8.98496534604619   -1.59712819528692    6.59745547292323
H         9.31244171357482   -0.79576879680944    5.05417493490688
H         8.14523853397656   -2.12809191914652    5.13412762066360
C         6.35292577623710    0.43984703463013    3.73951646801881
C         7.45271718484998   -0.07592544591627    2.82676388190969
H         7.84932849070695   -1.00182268033105    3.24356865339471
C         8.57399788361883    0.97090230250420    2.76520673912598
H         8.17060769769688    1.89711617348748    2.34880937345519
H         8.94138120442693    1.18895978104856    3.77003173989171
C         9.71043785742374    0.46800434958862    1.87998794638617
H        10.50100465066813    1.22003123389260    1.83484096152596
H        10.13584079902344   -0.43925925113423    2.31527784709556
C         9.19861683939253    0.16349436297597    0.47522911202922
H        10.01404469356859   -0.21921480717291   -0.14185233610344
H         8.83619621546303    1.08596552331945    0.01568704280025
C         8.06297383725452   -0.85461365267430    0.52850312821172
H         7.68578320957994   -1.04293121172919   -0.47847989209169
H         8.44156302640647   -1.79977408104887    0.92471565323832
C         6.93086105486383   -0.34888151330809    1.41630209093636
H         6.51757388305996    0.57165040828793    1.00014141898917
H         6.12506919196229   -1.08344415054716    1.46333783132104
C         1.44004001496692    2.18143093934476    3.71877705566478
C         1.93629865738218    3.15877515256272    4.60329788454331
H         1.43665676324993    3.33035352918311    5.55039613322588
C         3.04007275426430    3.97087381409675    4.23766107203323
H         3.36967178201884    4.74053001508418    4.92595211326253
C         3.66093865623805    3.83978221493323    2.98483238429695
C         3.16218473718519    2.84077202357365    2.10215494024089
H         3.59904665564125    2.74643883387392    1.11245744594360
C         2.06395341528739    2.03828541428344    2.44725057544080
H         1.65774424418575    1.33268026204996    1.73112619176247
C         0.28048359905860    1.31135710512997    4.08745627253144
H        -0.27725777397613    1.73023651454450    4.92164137187470
H         0.66031377486028    0.33036260044591    4.38576461225076
H        -0.38505396338723    1.17168552014235    3.23766590924641
C         4.81453612113343    4.72482986836877    2.57650752170266
H         5.14207851670703    4.41491754097991    1.57719121099386
C         5.99029322264356    4.54331304818116    3.54042733583533
H         5.74919393477049    4.93171624916116    4.52699191002980
H         6.86924349161627    5.06625005579012    3.17013434848249
H         6.22878640953622    3.48393173705114    3.64071224885210
C         4.37840494783725    6.19071936551401    2.50528012749954
H         3.54398326380796    6.30866425409271    1.81687344809273
H         5.20355137247870    6.80681676054843    2.15640618612374
H         4.07189530874512    6.55260483846153    3.48373932951865

