72
CSD_code = UBITUX | q = 0 | S = 0 | Stoichiometry = C29H37ClN2O2Ru | MND = 9
Ru       19.22911871658377    1.81624009717976   10.65605554333855
Cl       20.33728631277211    3.85202995292812   10.94814109161600
O        17.49363845228442    2.98427213165547   10.62143007188215
O        19.10857207544422    1.80377595417397   12.73036315367139
N        16.29831001280467    4.71263841843982   11.57118662869000
N        16.10118524850945    5.26469777660578   12.79833654367278
C        15.63066250181771    5.22819223223099   10.45781096917985
C        14.47965012986772    5.98546814975788   10.65898401923612
H        14.14278200902661    6.15683197480288   11.66866836001348
C        13.80355647021758    6.50895805478250    9.57427478610673
H        12.91055965398199    7.09537026902174    9.73372734672694
C        14.26401497515926    6.28335505467279    8.28719585598902
H        13.73081135447167    6.69010477739279    7.44067128073394
C        15.41720941549687    5.54176382349613    8.09119801809839
H        15.78900839379597    5.37812792413531    7.08989376251694
C        16.10656882695271    5.01572686273372    9.16791615320810
H        17.01713874136371    4.45717205647428    9.02076815888506
C        17.20566391873489    3.69453610846862   11.62676082000817
C        17.59777034300848    3.58822098669985   13.00310989307844
C        16.85398258788069    4.63222147149356   13.65167719623515
C        16.86156806514394    5.09373258660880   15.06630798270607
H        16.19279820756693    5.94724601569146   15.14295180603822
H        17.86227891386900    5.40638418786600   15.36060502519008
H        16.51863188711231    4.31481367435675   15.74434910672448
C        18.47945968018144    2.59272462284317   13.47384829651280
C        18.64305839750673    2.36767857311596   14.96886107948556
H        18.62264598780083    3.33369137458164   15.47322080326177
C        19.96680529169723    1.67198522307187   15.28650950360254
H        20.79348382148776    2.27758616685475   14.91110338873813
H        20.00110562807032    0.70914822616512   14.77362383431224
C        20.09897974069704    1.45945995498991   16.79059874304906
H        21.04423552081128    0.95974814727766   17.01169608968118
H        20.10818676503262    2.42836346594623   17.29523907338769
C        18.93474594550892    0.62527165685977   17.31786480327928
H        19.02494274847320    0.49964593538144   18.39882017080766
H        18.96570381599161   -0.36765846489157   16.86277056187493
C        17.60382168503052    1.29209921522906   16.98269893390537
H        16.77630983392480    0.67304829253572   17.33612470568189
H        17.54303048493213    2.25564251862799   17.49398440553206
C        17.47736832965450    1.50917115456570   15.47756615970335
H        16.52556030428836    1.98889307739811   15.24085733707615
H        17.49903181615004    0.54344880777875   14.96642647030225
C        18.31871462212466    0.03374821042504    9.60602345094016
C        19.22851572236519   -0.47839814911801   10.55239923710353
C        20.57270165296095    0.02557083995590   10.59326370965839
C        21.01836981095691    0.93583406619935    9.60644019557046
C        20.09722597872049    1.42638167651974    8.61426746867607
C        18.76687523901810    0.95685018764758    8.59624465498498
C        16.87869255730959   -0.40715065658550    9.60493965746074
H        16.72900015519797   -1.24565931529987    8.92122381306740
H        16.23545439034536    0.41300069879441    9.29606268014867
H        16.56269187203681   -0.70838432492508   10.59975207508161
C        18.82575175417101   -1.58813172516629   11.48841731009772
H        18.02015982307958   -2.18098006496632   11.06360460344797
H        18.49213406410597   -1.18921734635919   12.44690527564016
H        19.66757095159439   -2.25266601261104   11.66855515393358
C        21.51716268567634   -0.44595433484333   11.66879716702887
H        22.19582266554839    0.35484764967541   11.95105833602003
H        22.10248093167630   -1.30131212479308   11.32459341237813
H        20.97070599704078   -0.73304846598707   12.56213139262270
C        22.45521855384639    1.37520412069159    9.54841462654421
H        22.56305388670842    2.34276862535248   10.04317930741825
H        22.77878376028639    1.48242463975277    8.51606720647553
H        23.10942968249292    0.65853408809739   10.03562300494464
C        20.58957449446542    2.44333105760458    7.61916676472145
H        19.76717238564924    2.99962108798845    7.18090568060424
H        21.15680869356564    1.96167523508291    6.82048294270970
H        21.22987438864018    3.16429421796470    8.12334296189024
C        17.81152580101797    1.34464719044431    7.49838196488323
H        17.16254127913192    2.15835114977057    7.82436205369250
H        17.18589057445389    0.49683548580963    7.22801631375896
H        18.34365261474825    1.66255380286253    6.60657964479185

