107
CSD_code = UBITIL | q = 0 | S = 0 | Stoichiometry = C40H61ClN2O2Ru | MND = 9
Ru       10.16477790610867   25.01872785224437   21.49654702101410
Cl       12.19575363709148   24.00594353497164   22.04855680416270
O        11.36338989564407   26.56506084400938   20.74859020035652
O        10.38838820365550   24.02397079434644   19.68200247169882
N        13.16722524135529   27.18563379600569   19.44779184954415
N        13.82441568817446   26.74996379379961   18.33829679166183
C        13.58087748929510   28.35591812648167   20.08849850171407
C        14.36905448421340   29.26231238046557   19.38411053639381
H        14.64131398323067   29.03041190484194   18.36710972653024
C        14.79469159254960   30.42442682262489   19.99746830313005
H        15.40577788242333   31.12536492406251   19.44790122544850
C        14.44053331966718   30.69381836182121   21.30952944576583
H        14.77129707462234   31.60517127590402   21.78532564881523
C        13.66796452536933   29.78391251518598   22.01194449738849
H        13.40355809759551   29.98224397439975   23.04072955398814
C        13.23866864963138   28.61468897085735   21.41204486501025
H        12.65618813195612   27.89391620424430   21.96321326243772
C        12.16149498261007   26.33018917799894   19.79652017742799
C        12.18695071773165   25.27647304440801   18.82462580508617
C        13.27525914461942   25.63245386340365   17.95890257582680
C        13.82800636142893   24.91539096343284   16.78006180828702
H        14.68202896867324   25.47633196644662   16.41046440240184
H        13.08790161113023   24.83132931676730   15.98645652792699
H        14.15431796553960   23.91513615212344   17.05775080449714
C        11.26210859070373   24.21225175282998   18.80409159267603
C        11.27688549908362   23.23213852559465   17.64618552939917
H        12.25900931102287   22.75667111272676   17.62748316451646
H        11.15513668049964   23.78312814435678   16.71146986827252
C        10.19453647010173   22.16474819540193   17.77875029360385
H        10.30127643407094   21.67521696175720   18.74845888918108
H         9.21142419078615   22.64030117898258   17.75546985190918
C        10.28809617418118   21.12705926674426   16.66436450129428
H        10.17512707621484   21.62002472295731   15.69539049698860
H        11.27722433370407   20.66383137517656   16.68543330034457
C         9.22459059911723   20.04064988670842   16.80501634941639
H         8.23213258469196   20.49674430244832   16.76995856775722
H         9.33141811565477   19.55772216653287   17.77904371367163
C         9.33562701631933   18.98722181364623   15.70571410168981
H         9.22043940123980   19.46791468302894   14.73120934362065
H        10.33207983248446   18.54032863749569   15.73619521656818
C         8.28777956516140   17.88663794294336   15.85203474716743
H         8.39971040200432   17.40998550906960   16.82879059219344
H         7.28946626277317   18.32935635721538   15.81404127425855
C         8.41360892479017   16.82931400758913   14.75804856977865
H         9.41456384730379   16.39274785529087   14.79341643357298
H         8.29681389082254   17.30514354954776   13.78137893097370
C         7.37575265412215   15.71938229395207   14.90491162386559
H         6.37384826804916   16.15391303743782   14.86760065535812
H         7.49193621575381   15.24358160999439   15.88162268343856
C         7.50884089718674   14.66324310024447   13.81050753131312
H         8.51124207135362   14.23011380785124   13.84788172887324
H         7.39273202332992   15.13957233913158   12.83399235124903
C         6.47370793304168   13.55038749898403   13.95429933243364
H         6.59094162016716   13.07206747422542   14.92966186151314
H         5.47107200730642   13.98332986114258   13.91856121368591
C         6.60727186092813   12.49737390992502   12.85692391834267
H         6.49396720759849   12.97679580486627   11.88159586450791
H         7.60863111860559   12.06186863918760   12.89483524364003
C         5.56883843571637   11.38688914916439   12.99588866889211
H         4.56756667394074   11.82289986216190   12.95934982078613
H         5.68282277280121   10.90604752787211   13.97039984847359
C         5.70118830751227   10.33595926334621   11.89642940533946
H         5.59194682137700   10.81808116459786   10.92194703984562
H         6.70090978595482    9.89675082171921   11.93576691394769
C         4.65855721436837    9.22869430287438   12.03021230871195
H         4.76693693046289    8.74670731778153   13.00490015303486
H         3.65876859695602    9.66795342423225   11.99006001448793
C         4.79244874411408    8.17846889325299   10.93035268313795
H         5.79151636564084    7.73789197788181   10.97219042075035
H         4.68611167115858    8.66126665261839    9.95585016576213
C         3.74908492672550    7.07132850876405   11.05914192081625
H         3.85438723524366    6.58848676124906   12.03348090245600
H         2.74988084470201    7.51093991380321   11.01511297344389
C         3.89156703962674    6.02700198358941    9.95869574543449
H         3.77060845989962    6.48592536791009    8.97971652866153
H         3.13994260372371    5.24856772055290   10.06803564201996
H         4.87475243188917    5.56292552902985    9.99863607022967
C         8.29194905871505   26.26694330871011   21.70927793051102
C         9.08338170130904   26.45432496626103   22.89704100733386
C         9.52376952947066   25.33298479291295   23.63209449024981
C         9.13043259067955   24.00821618801818   23.22656701999660
C         8.35269384964277   23.83143100424028   22.05857123388592
C         7.87564819340077   24.97484262638844   21.33205936731404
C         7.88282566520197   27.47188650184071   20.90380513879453
H         7.71320466487459   27.20502464848160   19.86440654363151
H         8.67055253712333   28.22077787806837   20.92097933411092
H         6.96896270105842   27.91586790346103   21.30459786489238
C         9.36238259604416   27.85836175872097   23.36534976067790
H         9.55296150535718   27.88636458291133   24.43422461423825
H         8.50704900744782   28.49919431672458   23.16315744136857
H        10.22888739191001   28.27050449664271   22.84692458629657
C        10.40873199780759   25.47970480569669   24.84134697072898
H        10.92407114498731   26.43479945963627   24.84200841609323
H        11.17237353313308   24.70464475668186   24.82842874183848
H         9.82732829590155   25.39040520525122   25.76092637668957
C         9.52732775080001   22.83606865523377   24.08079691718012
H         8.85099350482452   21.99775972222437   23.94254770899137
H         9.51547965880152   23.11063696346024   25.13258489982465
H        10.53957472269428   22.51877847812064   23.82150612255292
C         7.99126457727091   22.44679185104779   21.58634755417804
H         8.78313661680782   21.74474032037076   21.83278291587246
H         7.87270036500959   22.43060340341279   20.50655948218589
H         7.06192982723006   22.10797671662130   22.04899351488385
C         6.89342951295784   24.77781330475613   20.20716090628843
H         6.24541799108515   23.93022715601505   20.41725648272652
H         7.41042837988398   24.58820468945519   19.26596715294603
H         6.26434063247601   25.65537551027009   20.08378013358045

