74
CSD_code = UBITEH | q = 0 | S = 0 | Stoichiometry = C31H37ClN2O2Ru | MND = 9
Ru        6.74931503866352    4.94727385944051    5.40572101314835
Cl        4.95337631309750    6.30371949967874    4.79182848993998
O         5.29301314890176    3.52220734634660    5.83123513548311
O         6.63283458773078    4.20485581330982    3.47395325819954
N         3.14853102734638    2.86900003279249    5.28340697878227
N         2.39026395889597    2.71264027890130    4.17272535199873
C         2.57902711679890    2.67195010887476    6.54481398951624
C         1.19843034485245    2.50609345018472    6.62825051361261
H         0.62000647012463    2.53361145829949    5.71964086368689
C         0.60029184878316    2.31506081355930    7.85775603491606
H        -0.47037842668230    2.18811429220407    7.91594344525120
C         1.36504189879724    2.28959859795756    9.01286576281519
H         0.89406207037357    2.14458821399268    9.97377289552235
C         2.73696607847678    2.44932427156456    8.92712174917336
H         3.33982253084129    2.42597514463167    9.82326563667298
C         3.35048460326567    2.63261892080526    7.70115627269942
H         4.41956856975708    2.74802321295438    7.63773897357158
C         4.39997023390853    3.29837984317493    4.95786695229360
C         4.46222363632371    3.32475715706114    3.52209180720220
C         3.12606517990515    2.96959009806691    3.12797295633589
C         2.41395176091193    2.99714415302803    1.81904367188770
H         1.39735467370744    2.65530810132290    1.99859425234645
H         2.86861572164190    2.36236918908358    1.06371537605491
H         2.37007284315820    4.02002244618816    1.44664011696783
C         5.70242844448995    3.60504045664979    2.88774866329627
C         6.06986064987548    3.11306334313608    1.48152568598461
C         7.58944345626719    3.23291701601931    1.28490472389236
H         8.10251882524876    2.63207735146004    2.04016585232388
H         7.89210554458550    4.27273218174353    1.42011881401356
C         5.39582638797998    4.00074948180055    0.42823545766665
H         5.73001510157431    5.03119757461379    0.56799600065031
H         4.31733280826675    3.98474823894901    0.54783521320760
C         5.68787517065884    1.64010818554601    1.30410975477962
H         4.62630729404283    1.48726988718645    1.48217605247416
H         6.23000654199472    1.03972335264466    2.03963475402993
C         7.98156933355374    2.75764200344667   -0.11275962852032
H         9.06812133919233    2.84696605991825   -0.22899191135014
C         5.77327450661015    3.51074228750827   -0.96957525425363
H         5.26261723266745    4.13178688108525   -1.71392237758957
C         6.05691297845314    1.18291252141581   -0.10736811860121
H         5.75061044468410    0.13849092822883   -0.23594250328495
C         7.28397524854597    3.62215337230831   -1.16059180279064
H         7.59622070070251    4.66335065289250   -1.05444994566877
H         7.56101572343058    3.28930410563833   -2.16342891554561
C         7.56748575158576    1.29952795372276   -0.29936391954873
H         8.08470151763470    0.66703842138004    0.42598146717848
H         7.84556676743316    0.95818758417243   -1.29898130440299
C         5.34152063100215    2.05451380163687   -1.13889169507122
H         4.25961989365197    1.96919348734871   -1.01501586351508
H         5.58838528220127    1.71071376366464   -2.14594740624021
C         9.00042257413203    5.33541196572556    5.15120122302806
C         8.83189934484285    4.16092394934167    5.93699077066164
H         9.35252075588946    3.25347636244427    5.65484446275640
C         8.05441669132726    4.19152855694980    7.10149009648624
H         7.97338482327149    3.29818909389743    7.71242398971856
C         7.41546437503502    5.38584457091993    7.53528108777660
C         7.58641055486980    6.54297153479012    6.74755449916916
H         7.14674584746395    7.48161662279262    7.06641589763534
C         8.39346583936631    6.52944541858500    5.58099051814581
H         8.56809652986997    7.45244643941473    5.03907007266708
C         9.89541326137006    5.30921314411172    3.94924465703839
H         9.69761718275301    6.15787556707359    3.29877568869987
H         9.75047807555170    4.39199913942402    3.38207694790404
H        10.93850366153160    5.35158170676919    4.26816246743742
C         6.61305156524406    5.41467464933051    8.81506575608327
H         6.55448838805803    4.39005246013265    9.20000543024518
C         5.18773276484640    5.90567202015081    8.54895720398733
H         5.17715396951211    6.96505850155016    8.30715480500389
H         4.56407953243405    5.74589656617253    9.42507803727703
H         4.75424337689840    5.36275299681106    7.70927395351281
C         7.31463520932937    6.28303459588590    9.86378024964910
H         7.38052698967947    7.31512620843826    9.52767103073265
H         8.32175426863050    5.91763080876219   10.05640364123975
H         6.75496561216747    6.26189992290254   10.79536422199701

