25
CSD_code = UBOBUI | q = 0 | S = 0 | Stoichiometry = C10H4Br2Cl6N2Zn | MND = 4
Zn        6.26350123279185    6.26350123279182    2.06502480690859
Br        4.67104009765291    4.67104009765290    1.43219871452458
Cl       10.71418012962148    5.63808794846234    5.68850344160220
Cl        9.60143946507411    2.92556035473259    6.84925362005516
N         7.38930637310719    5.13769376642691    3.63622895863203
C         8.52913302140846    5.61745075056431    4.11524109819130
H         8.89515067108183    6.54262787399836    3.69212837927291
C         9.25008860009896    4.96956762668268    5.10955698058092
C         8.76073163720948    3.76626822386500    5.62874891262029
Br        7.85595920622662    7.85595920622675    1.43219578754894
C         7.55743232636622    3.27691124555138    5.10955679660246
Cl        6.88891219663040    1.81281951679238    5.68850301862617
C         6.90954920668091    3.99786702397249    4.11524097445060
H         5.98437211679445    3.63184938820725    3.69212816487509
N         5.13769376642685    7.38930637310715    3.63622895863197
C         3.99786702397236    6.90954920668097    4.11524097445043
H         3.63184938820706    5.98437211679454    3.69212816487486
C         3.27691124555125    7.55743232636625    5.10955679660233
Cl        1.81281951679217    6.88891219663050    5.68850301862591
C         3.76626822386497    8.76073163720940    5.62874891262029
Cl        2.92556035473258    9.60143946507399    6.84925362005519
C         4.96956762668271    9.25008860009881    5.10955698058100
Cl        5.63808794846249   10.71418012962121    5.68850344160244
C         5.61745075056431    8.52913302140836    4.11524109819134
H         6.54262787399840    8.89515067108165    3.69212837927299

