119
CSD_code = UBOBAO | q = 0 | S = 0 | Stoichiometry = C62H52Cl2P2Pd | MND = 4
Pd       -2.09254421549836    0.71275048469912    6.27474804956020
Cl       -2.34093658918082   -0.75982680925521    7.99762644216864
P        -1.51935504252928    2.27738539779395    4.76770559857897
C        -1.75954784891277    3.81744725362516    5.68356852146798
C        -1.74680332398521    5.38441988636987    5.70238109526002
C         0.00674302996977    2.45751772331938    3.72514872265847
C        -0.13161253060157    2.71118736195364    2.32898753255410
C         0.93546512412194    3.19055515931320    1.57804747665310
C         2.14001518560937    3.46085895339442    2.21570408969148
C         2.31455982842386    3.04807248485185    3.53886168439689
C         1.30000954709512    2.47628641976064    4.29580242846768
C        -1.34380150185787    2.45933188902479    1.64371438539646
C        -2.65796325848634    2.13778197811876    2.31404508362178
C        -2.73144842003272    2.48161701597015    3.53062124607341
C        -2.35994219201353    2.05101345457499    0.89545010191411
C         3.13493292643157    4.23719592184812    1.56291935563071
C         3.53096088868185    4.63058575142809    0.26755575794301
C         4.84018347291344    4.29432693639169    0.69159939774227
C         4.37164673654167    4.85304482951805    1.90321324655677
C         1.64833735835061    1.92421800142025    5.68080425596315
C         3.16851791893901    1.79519172472275    5.87358594269824
C         1.03991301222615    0.51467907233494    5.86120665855240
C         1.14582510895631    2.87494155675232    6.77532745116791
C        -1.13077714704818    6.40235073261889    4.82026155554854
C        -0.30005132030119    5.77167469332701    3.70462134961110
C         0.58649324024304    6.77028198859994    2.96066525642996
C         1.84810482015347    7.13561778281918    3.75310325653909
C         2.69951454452266    8.11211004215040    2.99149168714975
C         3.83719070345028    7.71281500873910    2.30608534137663
C         4.59374410328004    8.61135169377467    1.58209531061654
C         4.23577161159861    9.95380256758637    1.52410595553924
C         3.10137550648962   10.36007398888870    2.21323740153108
C         2.34581183391208    9.45493302570575    2.93463425548494
C         5.07055856101997   10.92568046462639    0.74855184717767
H         0.80595079720507    3.39556145427159    0.52665548553337
H         3.28887442854850    3.20772321665425    3.96891389940981
H         3.62206127352475    1.21780797015423    5.07119552746199
H         3.35629125176340    1.27686662629263    6.81118675915757
H         3.65569485320936    2.76548065344372    5.94202045645176
H         0.53612244950987    0.17387525968091    4.95423824221094
H         0.33799084351691    0.47831434506981    6.71670283697889
H         1.82304943435258   -0.21065377043656    6.07130418141925
H         0.05994818289615    2.83510858703981    6.86276822594162
H         1.44150646678048    3.90266960868192    6.56887599607279
H         1.56819344344155    2.58291124979318    7.73445473821945
H        -0.50113822802206    7.05011718976929    5.43867442167648
H        -1.91437260360549    7.03508377761260    4.38975971235128
H        -0.97982036482732    5.28960140840914    2.99733314042412
H         0.33718108000512    4.99851387045048    4.13782967715443
H         0.01909730447142    7.67555007500598    2.73608047057092
H         0.89415529363088    6.33206059115652    2.00829506490327
H         2.41862805228593    6.22577488228667    3.95283013395438
H         1.56392535459237    7.57603817812509    4.71173185262608
H         4.15150058604604    6.65833545780074    2.33331825992650
H         5.47344476445941    8.27081066256516    1.05518443603705
H         2.80445627309238   11.39899546787448    2.18564616099576
H         1.46795072395007    9.79443760993982    3.46679145237543
H         5.28651992718693   10.53703068719627   -0.24500642780994
H         6.02171420127496   11.09059974044713    1.25486929003981
H         4.56402505132819   11.88242576636399    0.64944337238738
Cl       -1.84432713905115   -0.75814686666939    4.55008818058782
C        -2.42599008378920    3.81749939299272    6.86554258740203
P        -2.66633411677746    2.27743260179621    7.78145089709534
C        -4.19249787006057    2.45759365934625    8.82396424303234
C        -4.05426803726050    2.71118489154788   10.22017050048034
C        -5.12139005568185    3.19055349915816   10.97103878320265
C        -6.32595195198907    3.46075043361977   10.33333819527120
C        -6.50041922943359    3.04784897688311    9.01020882239243
C        -5.48576410629121    2.47618264211841    8.25331390981266
C        -5.83396286703248    1.92393372046453    6.86836455604729
C        -7.35410791363611    1.79478432690591    6.67544200053222
H        -7.80765788518959    1.21740051881332    7.47782808899709
H        -7.54172621428688    1.27636405922113    5.73786285146556
H        -7.84138428094021    2.76501736650753    6.60689693862072
C        -5.22540499341361    0.51442732512389    6.68814236940546
H        -4.72128993878583    0.17388726945180    7.59503871856546
H        -4.52376434649281    0.47796174220444    5.83242362564205
H        -6.00851159616204   -0.21106004507814    6.47845213652497
C        -5.33139913915746    2.87460879409694    5.77383260325147
H        -4.24547588944049    2.83511333857125    5.68679824812884
H        -5.62747872411525    3.90228769713404    5.97998051640347
H        -5.75332746660456    2.58225133492450    4.81460904736434
H        -7.47475426787582    3.20729550389605    8.58012435607182
C        -7.32101799883275    4.23693595555143   10.98607823802524
C        -7.71724263782872    4.63012427364879   12.28144886174494
C        -9.02633843903350    4.29356939748536   11.85734358531669
C        -8.55790437909507    4.85238957461045   10.64574164865727
H        -4.99196778767348    3.39555242799673   12.02244468263591
C        -2.84222285585083    2.45890756449716   10.90553607620621
C        -1.52816275437367    2.13693210418456   10.23522370243094
C        -1.45438663172635    2.48120478116160    9.01876509905013
C        -1.82639497246084    2.04968900038844   11.65374637215781
C        -2.43971464241386    5.38450721588438    6.84586842511002
C        -3.05664614418296    6.40251163867686    7.72723986652925
C        -3.88682411607568    5.77185359573097    8.84327683297149
C        -4.77340371655237    6.77037861223779    9.58727516823392
C        -6.03488001959042    7.13587158355966    8.79470970619645
C        -6.88639000109852    8.11231397557495    9.55626736895351
C        -8.02397675322844    7.71289678765524   10.24176307996105
C        -8.78085546914710    8.61151702878388   10.96532448247688
C        -8.42330717864774    9.95410241922335   11.02281287286694
C        -7.28886690244186   10.36042046259860   10.33378637893267
C        -6.53297639987640    9.45522412721247    9.61279872131438
H        -5.65512249439729    9.79478235240314    9.08066027702796
H        -6.99219471550925   11.39942065657751   10.36108800750839
C        -9.25861786555281   10.92608343749892   11.79767754216354
H        -9.47434722024354   10.53806672712324   12.79153371511473
H       -10.20987640043377   11.09006443365917   11.29124739675784
H        -8.75263974956666   11.88319822549547   11.89605205832526
H        -9.66052341950588    8.27092079600876   11.49225298479540
H        -8.33796997106155    6.65836404429774   10.21488668284110
H        -6.60541288421638    6.22608322255362    8.59477202833592
H        -5.75055395890568    7.57643244081556    7.83618963473435
H        -4.20598369842524    7.67558962596129    9.81203067988023
H        -5.08118413050357    6.33203116732500   10.53954675357486
H        -3.20667632039772    5.29014836113560    9.55045401821100
H        -4.52395054056611    4.99839988458862    8.41043711268749
H        -3.68687474921493    7.04924094958444    7.10834233065673
H        -2.27364648109600    7.03628396267342    8.15729032306955

