91
CSD_code = UBOHOI | q = 0 | S = 0 | Stoichiometry = C35H49N3Si3Zr | MND = 4
Zr        2.59368892261842    8.55046151633470    3.63543926772375
Si        3.01616301718841    8.76463079688458    0.58074552438923
Si        5.36254418663671    9.44721690602275    2.59742957056351
Si        4.39002066897028    6.45084480395836    2.25386106585078
N         1.76682931638870    8.51581081401283    1.71876058393008
N         4.06056403185925   10.03164820327776    3.53622434400058
N         3.66730636441110    6.76615181888274    3.76935012656753
C         4.64668304564129    8.14317672515562    1.38270650527091
H         5.37461583159796    7.99854026543403    0.58441541204024
C         2.74875309159041    7.91025950523396   -1.12017323966717
H         2.62756513496705    6.83833260324237   -1.02931020846562
H         3.58511784495174    8.09030147672376   -1.78600804876448
H         1.85993819987509    8.30274158521250   -1.60296121084616
C         3.10839438307920   10.63223469653205    0.09343209277706
H         2.19420842806741   10.95763903114985   -0.39634117280964
H         3.92483977717625   10.82174038616913   -0.59509129962463
H         3.25603577596706   11.25982895088694    0.96689204980794
C         6.33426197496189   10.79324539088094    1.62879351106781
H         5.70267881997358   11.34771408201980    0.94651091693822
H         7.13906128988511   10.35601910722701    1.04884273458988
H         6.77980246583008   11.50392509960667    2.31693772787723
C         6.72607294239981    8.70208298734360    3.74618099003488
H         7.14414236091444    9.45921387668159    4.40457045516183
H         7.54773516231268    8.29024036853090    3.17018018065092
H         6.32479465691923    7.90871687629008    4.36906295268554
C         6.05228095106349    5.48852325514317    2.32859261472244
H         6.79948435522992    6.00047518121524    2.92150650049650
H         6.46538212835134    5.34066583153132    1.33723270581646
H         5.89993045243262    4.50729791491829    2.76575303812737
C         3.27167351515557    5.25969558684679    1.22201423382768
H         3.16605284887961    4.29535454330978    1.71229596536474
H         3.69131655394022    5.07435437653241    0.23913992908445
H         2.27646182331528    5.67195810710696    1.08752636370897
C         1.10229834363859    8.84053752040881    5.28549858372941
H         1.02463708845320    7.96587999887369    5.95363521459567
H         0.07984538313248    9.02681138664119    4.91503275290418
H         1.34500063149989    9.69606220158281    5.93865388626827
C         0.48174851881391    7.96608487567255    1.38133761388598
H         0.56946203814394    7.21466116509516    0.57351952253302
C        -0.58055080500850    9.01859395069697    0.94189247066562
H        -0.30163868370201    9.98250109996024    1.36821777295771
H        -0.61080632138499    9.12322040292092   -0.14118289640137
C        -1.92342287165313    8.55285783994403    1.52538557237734
H        -2.55299743235720    9.38312156598955    1.84844517237821
H        -2.48928010049088    7.97539760341468    0.78873623515427
C        -1.52722684016311    7.65618479115725    2.66154898367368
C        -2.30740002193493    7.15479396349723    3.68626157542394
H        -3.35060005200084    7.42377824791079    3.76829428643810
C        -1.72754431310102    6.29649650327160    4.61012661461628
H        -2.32597790051449    5.90033790971117    5.41737013003409
C        -0.39311479623781    5.93579266336162    4.50368965190319
H         0.02842813261735    5.25105875867911    5.22624201361661
C         0.40122560492212    6.44231636505664    3.47945261739621
H         1.44177721363594    6.14067524711718    3.35666000321525
C        -0.18258659212420    7.30868676864453    2.56773845970401
C         3.84997766859438   11.42407539539839    3.82699260331389
H         4.16857306185795   12.06064850395427    2.97956578619046
C         4.57312410351180   11.93608282933931    5.10923901578637
H         4.75099689581762   11.08221885698853    5.76347747782549
H         5.53523556157564   12.38530626658625    4.86922967514443
C         3.61381267698293   12.92813310689522    5.78527569912410
H         3.84793285045229   13.95647225187156    5.49546037759686
H         3.65226469061407   12.87503308123957    6.87422451186933
C         2.26747853144740   12.55206931938904    5.23962491307304
C         1.01399903930631   12.93923627184042    5.67440883024940
H         0.90215501624928   13.57604365660297    6.53999492263858
C        -0.10215781364312   12.49612894555599    4.97842006424691
H        -1.08736155437173   12.78955254640956    5.31009771722980
C         0.03355734906885   11.68950625476690    3.85900124844885
H        -0.85137314538864   11.37349304443270    3.32460050401099
C         1.29171782512156   11.28914919462820    3.41920758253582
H         1.42137955129093   10.68733270535473    2.51933943611305
C         2.40098289743310   11.72635372109889    4.12699154962905
C         4.08522960985891    6.14123345540059    4.99481607760002
H         5.17561811537413    5.95144373985583    4.99354798267093
C         3.36697694784331    4.79608525834438    5.31574827541640
H         2.40090423506307    4.79750910316981    4.80999562830972
H         3.93891253059847    3.94364018665388    4.95335967749471
C         3.16380842159065    4.76546892869019    6.83828167050254
H         2.22714772151086    4.28769855374365    7.12890168841055
H         3.97809049753490    4.22472469006503    7.32920306902483
C         3.21861124624892    6.21206957477194    7.23365891918565
C         2.85162784460355    6.80187308847440    8.42839214788052
H         2.43023028927787    6.21150489439418    9.22916529877267
C         3.03402307222305    8.16906331279609    8.58341492566150
H         2.74824018356736    8.64242410032392    9.51133237948727
C         3.58553338607454    8.93127712931848    7.56514407706544
H         3.73305956970546    9.99106954291878    7.71872873155300
C         3.95149746806621    8.34616450776286    6.35671589574508
H         4.42110521747428    8.92156838606029    5.55856619665233
C         3.75511189078198    6.98205209492648    6.20550702354890

