60
CSD_code = UBOLAY | q = 0 | S = 0 | Stoichiometry = C30H16AuClF10NP | MND = 4
Au        3.85143064992168    7.27762201227422    2.82980869693628
Cl        5.96241703778035    6.99917667656918    3.64135349181787
P         3.27805808753147    5.64705828719997    4.37581226992519
N         3.71598581779486    7.95483733415574    6.32610380370839
H         4.05212201677840    8.81355490707610    6.73114139359116
H         3.34454964158598    8.05184457987540    5.39270380385396
C         4.47792378732671    8.60399629965966    1.44343846990780
C         5.22082982141592    8.16834361250477    0.35805374954940
C         5.73248797323133    9.04783120200339   -0.59099597577718
C         5.49374070061050   10.41163448765731   -0.45409388937516
C         4.74671745380456   10.87676525000546    0.62316261563466
C         4.25334104897806    9.96505542222819    1.55052539421232
F         5.45061994453842    6.85701996676594    0.21659390154801
F         6.44444831025174    8.59616059155410   -1.62603511244362
F         5.97501828908598   11.27030741828263   -1.35503172607838
F         4.50616748284413   12.18427630806761    0.75736440132102
F         3.52525387951022   10.42049416578028    2.58493751351213
C         1.98009936127858    7.54157703938789    2.17696097110520
C         1.53943176259925    7.07110862018539    0.95071798946208
C         0.22190526839687    7.21838825619294    0.52688151749044
C        -0.69379356463377    7.86204943148758    1.35316028268050
C        -0.27908081078932    8.35409980146158    2.58607016104873
C         1.04643601812904    8.18933356499912    2.96998474567291
F         2.40425020617847    6.43323596315167    0.15054265282581
F        -0.16911961427134    6.73622718123657   -0.65475068974027
F        -1.96442858431098    7.99458837375945    0.97084120895342
F        -1.15176997789572    8.95756472413404    3.39564120187913
F         1.42970121581193    8.64924142024893    4.17191018158570
C         4.23347676217092    5.62546760906174    5.90012756032956
C         4.39847776076717    6.81446747355264    6.63849983012478
C         5.21826621879247    6.77670884129504    7.77120636177119
H         5.35112632691858    7.68417128866260    8.34220117889370
C         5.85811893103039    5.61736876928930    8.14815404302514
H         6.49202539249477    5.61813241336749    9.02198895939694
C         5.70637605722730    4.45465462004772    7.40365776404711
H         6.21973705486640    3.55109932273939    7.69247470170330
C         4.91017508900103    4.46540842809528    6.27886029230888
H         4.80958709182555    3.57072625309183    5.68170407382028
C         3.52207100727108    4.04724614670074    3.57555312222517
C         2.88376403038765    2.91407793012921    4.08146062884896
H         2.24594403421783    3.00044735618828    4.95184888341384
C         3.07113831496780    1.69219550662399    3.46489247952283
H         2.57911010239418    0.81374303952836    3.85545282755844
C         3.88751925969494    1.59438177353845    2.34735166132844
H         4.02692796586576    0.63768169322714    1.86686427590858
C         4.52115779520197    2.71891851964208    1.84566539347623
H         5.15379341293726    2.64490852845113    0.97436232036273
C         4.34186500915240    3.94818060640328    2.45633361873734
H         4.84021380310638    4.82462371444239    2.06570367985428
C         1.51820077213551    5.62710897112490    4.81125761507512
C         1.05548433876104    6.08285915489355    6.04062140121851
H         1.75632913656304    6.39344555980824    6.80090149143505
C        -0.30675607392714    6.13606041822967    6.27989828291530
H        -0.66766471764829    6.49284713498506    7.23250856383564
C        -1.20542530055140    5.74280710126996    5.30219285182956
H        -2.26668970267350    5.79671708852612    5.49088518910918
C        -0.74446258837945    5.28065286712002    4.07839216916070
H        -1.44411628615670    4.96716466256786    3.31778393138642
C         0.61271952676157    5.22706161962713    3.82875115366986
H         0.98246625134607    4.86827268987335    2.87644066888844

