58
CSD_code = UBOLIG | q = 0 | S = 0 | Stoichiometry = C30H15AuF10NP | MND = 4
Au       -1.50948896466559    9.79627740805955    5.90052911575174
P        -0.80874675712829    8.09001043096239    7.25166851585370
N        -3.11091462783112    9.81426063981053    7.04079190744242
H        -3.85693902080026   10.49030154388174    6.97702419543991
C        -2.26706496933938    7.94000825554211    8.27278631211816
C        -3.25951015981158    8.91765421097522    8.03626985056390
C        -4.39179398866307    8.88426555655708    8.87158941184159
H        -5.16858724190310    9.62023723883976    8.72120261440893
C        -4.51087449936874    7.93765631922708    9.86062463371449
H        -5.39271366001295    7.93539768016199   10.48440078583818
C        -3.51852408632610    6.98220180273969   10.07720781855653
H        -3.63203286032716    6.24817715619085   10.85919920320507
C        -2.39108499881807    6.99222607982640    9.28714228309804
H        -1.59899970336037    6.26995377611198    9.43563999559842
C         0.55116326825118    8.54974358891591    8.34907696637055
C         1.29747574649397    7.58628699200189    9.02270546408885
H         1.11237232660210    6.53570582023602    8.84395305785455
C         2.27967836150643    7.98497811809365    9.91029689130247
H         2.86339992001577    7.24132911194759   10.43227905844268
C         2.51504387374602    9.33332194498539   10.13047219153690
H         3.28620217958097    9.63756804610573   10.82199081118622
C         1.76416541119969   10.29142360738907    9.46767658687711
H         1.94704797011874   11.34098324610023    9.64016271633143
C         0.77857632250938    9.90405968731384    8.57884918496682
H         0.18570746574716   10.64529202189696    8.05770247324896
C        -0.37094957078506    6.50646316646122    6.52170141668340
C        -1.35206915923830    5.54495174287266    6.29998801240288
H        -2.35646974673812    5.71413946604800    6.66342201831979
C        -1.02727062409406    4.38755642787611    5.61659504741219
H        -1.78286206225195    3.63576250095701    5.44537226546608
C         0.25990239104175    4.19883551916721    5.13940730615772
H         0.50587663577741    3.29936239822749    4.59581181093750
C         1.23353602931282    5.16454808109334    5.34699710374542
H         2.23211562787064    5.01774591805372    4.96335949740222
C         0.92267861146834    6.32220539064320    6.03321719065094
H         1.67142068442545    7.08795381645481    6.19534143717415
C        -2.11826335613339   11.40487590045965    4.83712458105887
C        -2.26675641295263   12.62819641201490    5.47366059886313
C        -2.66566427346415   13.78189781408596    4.80701382531456
C        -2.92503086226891   13.72224678258271    3.44197785803977
C        -2.77745837829802   12.51394669476154    2.76985724123573
C        -2.37609666366003   11.38357161375663    3.47582655079752
F        -2.01722470737576   12.70486906780877    6.79070849883941
F        -2.80216799299942   14.93741283596836    5.46436971905741
F        -3.31061150387848   14.81648040344639    2.78219018473869
F        -3.01701920878847   12.44647780850310    1.45671641282270
F        -2.22875630656096   10.23298742532065    2.80062023442243
C         0.09987388887120    9.62466233330446    4.75082480389309
C         1.17472796424832   10.49937639092339    4.77409498095793
C         2.30710839932177   10.31747933880396    3.98670903696648
C         2.37801150637484    9.21716725358215    3.13885997568379
C         1.31378162817206    8.32302154164523    3.08444935231289
C         0.19823016722911    8.54541949081185    3.88296861265433
F         1.12641203565519   11.56290824703968    5.59336010927747
F         3.32466164131798   11.18164019860336    4.04773756041638
F         3.46394786205624    9.01599786334459    2.38889595220614
F         1.37858262179719    7.25372723531816    2.28555102812637
F        -0.82005417275255    7.67329263613324    3.82402773034098

