92
CSD_code = UBOMUW | q = 0 | S = 0 | Stoichiometry = C26H56Cl2N6SiZn | MND = 3
Si        5.99236299800998    9.48198533799256   12.39088636107730
Zn        7.25835075739833    8.33031486652441   14.00238752667743
Cl        9.23554305976878    9.48190023357472   14.26144705835231
N         4.37987975302592    9.28954660250683   11.63967351521803
Cl        6.77140233821804    6.50613363406032   15.23529733988985
N         6.02421392349691    8.20607136693593   10.81104070241200
N         3.81657497549888    7.54584375410115   10.09960776986384
N         6.94293105508180   10.85541069172226   11.75091746403302
N         5.70380753302568   11.12460852484895   13.46129033532492
N         7.29653433055892   12.87519839742555   13.00874895224203
C         4.71554066697902    8.31229905588966   10.79344405625752
C         3.11111493306873    9.97904844848695   11.64078802755441
H         2.49141318781259    9.52230418271228   10.86016116197191
C         2.42077586144635    9.83378063852629   12.99385006349487
H         2.04420364949192    8.82453939417554   13.14018717348573
H         1.58660853924791   10.52611960741015   13.07192651709978
H         3.14359072448292   10.04427974432128   13.77204084414650
C         3.32880919726449   11.44675339830050   11.27696531889163
H         2.37843266136439   11.97434908859626   11.24788706803674
H         3.80172955015087   11.52148437865712   10.30033298773169
H         3.97903443960878   11.90922613808498   12.01069441970002
C         6.68644725593801    6.99538056130714   10.34551327663021
H         5.89762886616712    6.26953893686944   10.10619188503834
C         7.56203234328930    6.38484404994121   11.43901834203348
H         8.34178798188756    7.08161475177771   11.74689762037504
H         8.04078992043453    5.48576071931870   11.05680068790642
H         6.96531964133525    6.11026018487236   12.30692686832413
C         7.53134304286104    7.20712730422366    9.08183108970609
H         6.99611801894818    7.77209706616118    8.32280005022373
H         7.78975264799664    6.23699269865448    8.66339799059635
H         8.45266784130292    7.73269865648916    9.31053599777800
C         2.81117698760018    6.84434579176379   10.89796264457708
H         2.83507336860818    7.34419638887884   11.87077341785947
C         3.20602727852438    5.38488610996744   11.16172021555997
H         3.11805541625848    4.77184561436993   10.27059566144765
H         2.55098897981124    4.97200279320746   11.92490188474481
H         4.22688903098733    5.33238525378600   11.53196075458490
C         1.38525385735589    6.92062861277998   10.35616151481936
H         1.27516859119151    6.34994758122391    9.43885349756367
H         1.08301714202470    7.94834373635030   10.17286904971479
H         0.70994052599484    6.49693307315736   11.09587842863715
C         3.96316216362989    7.48281679401398    8.64865330709887
H         4.96307160797434    7.88137907214504    8.45382892280884
C         3.89021277846517    6.08460429804146    8.03989831443708
H         4.14398034970674    6.15114803659884    6.98428978075628
H         2.89168857639146    5.66564685810095    8.11869545716514
H         4.59703537328324    5.41040814631093    8.51534095835616
C         2.97778462417287    8.42519119037518    7.94087534927118
H         3.28071060187130    8.54844343958747    6.90368268247779
H         2.98434736735059    9.40297441608060    8.41724058423379
H         1.96588744600086    8.03378986255935    7.95419439769915
C         6.67722731980616   11.68425012991907   12.76128052564685
C         5.44414419602449   11.54004551041077   14.83285150838651
H         6.22951843567854   12.26160267042360   15.09215083541905
C         5.54917693848923   10.36634803670331   15.80509670742930
H         6.56233804227298    9.95866475689713   15.81488569670483
H         4.85240257711740    9.57530783466623   15.53671730309657
H         5.31633270736754   10.70998849171488   16.81075971511332
C         4.08283579419132   12.22872022344696   15.02886546090862
H         3.29609823185592   11.49998049585342   15.19753836604299
H         3.80552267373522   12.83629727262108   14.17192100490119
H         4.13290102960991   12.87496374371878   15.90224819211082
C         7.79535249394404   11.14158736276045   10.62217881118337
H         8.09960748712493   12.19073456972724   10.70277389142194
C         7.00040842611928   10.96471074123470    9.32937631347015
H         7.63966048598752   11.13988309031455    8.46773216680540
H         6.16987024765088   11.66711857130660    9.29712355229817
H         6.60399614858500    9.95607825060637    9.28619531609311
C         9.03073617250289   10.24790815735566   10.64414835920958
H         9.67978575832651   10.47408442891556    9.80167975457792
H         8.71564426125985    9.21272975914884   10.59508713216670
H         9.59022554423485   10.37598609575307   11.56681207467748
C         8.74882288720379   12.85323139027424   13.20637760478648
H         9.05528953228412   11.85342850562279   12.89095683142641
C         9.13393103202790   12.94234020275926   14.68693900537449
H         9.01113631902030   13.94184232807217   15.09214964843125
H        10.17585722542031   12.65166396476667   14.78773541822605
H         8.54743358860909   12.23671931313548   15.26801432513936
C         9.52497133507317   13.88911296157917   12.39621608567463
H         9.26607517716013   13.85559919999564   11.34092406375008
H        10.58603367993372   13.67186275765361   12.48983256380215
H         9.35563877241565   14.89612404279664   12.76830897021829
C         6.44252442227642   14.05900007665047   13.06060147453418
H         5.42737231305132   13.67216357112032   13.18965649019366
C         6.71989932759513   15.02288199805248   14.21044282424116
H         5.94148155086233   15.78296873489825   14.22293173573752
H         7.67575560170017   15.52278713243581   14.08951930079275
H         6.70678076020319   14.50737316814110   15.16633969586894
C         6.45343926015230   14.80831947498762   11.71930509618542
H         6.31147682442759   14.10889225157339   10.89837754611958
H         7.38532368313559   15.34289917252437   11.56764340126654
H         5.63935797339071   15.52947007533000   11.70073993460964

