56
CSD_code = UBONOO | q = 1 | S = 0 | Stoichiometry = C16H32CoN4O3(1+) | MND = 6
Co        8.80692117937560    3.50571372448422   12.72071503519686
N         7.80378433462912    3.77443330943390   11.02967336069671
H         6.98062534476996    3.20818730722894   11.23317763402287
N         8.54412578572239    1.38713275787416   12.52121140396708
N         9.70579449415212    3.15445494630488   14.45933489969181
H         9.05242505071651    2.54223838061746   14.95328555537190
N         7.04913934819842    4.03397411688905   13.82833941863919
O        10.38587907445275    3.53560350747751   11.81264599744646
O         9.43792379699282    5.21245345545331   12.64129810926408
C        10.49235696664404    4.84754514215331   11.93262876551269
O        11.35241009037580    5.55124556505406   11.49310748699588
C         8.37182662443353    3.19471988633844    9.80392400250977
H         9.19292389470476    3.82789464190090    9.46390278854605
H         7.59541440208982    3.19636586557342    9.02760754483693
C         8.88645942612443    1.77036029984563   10.03086106593863
H         8.77820523476368    1.20861403774733    9.10297865766696
H         9.94707118628138    1.81812167936107   10.26304241022685
C         8.14267729818858    1.02022585463290   11.13456500841138
H         8.32088315288290   -0.05467685048034   11.00119899080783
H         7.06661694248631    1.17033033474497   11.01879542144632
C         9.84952339634227    0.70496693041081   12.74230036918715
H         9.69923711774920   -0.37427629923277   12.60631730241774
H        10.52637828403800    1.06159546686873   11.96834739680648
C        10.56504062600136    0.90887150751146   14.07592872177040
H         9.98311013266481    0.50933105570460   14.91201876792466
H        11.48095384440829    0.31859743458789   14.02439527078120
C        10.93858193794047    2.35712405275065   14.35872461983178
H        11.49209903328693    2.40621906057402   15.30350740341696
H        11.57343986903563    2.75666054184210   13.56639036544459
C         9.82420533760295    4.33284366521678   15.33272663189227
H        10.20638731726223    5.17982311182442   14.76079607813562
H        10.52439467372039    4.12243893526703   16.14943829695198
C         8.45575757587439    4.64798604767812   15.92014068507172
H         8.12115762270503    3.81152664812540   16.54122459508410
H         8.55328862009033    5.50850902381431   16.58341247944994
C         7.40813025199453    5.02937687496045   14.87654992334119
H         6.49096348820220    5.30866657324738   15.41194870714794
H         7.78945317734071    5.90774558308940   14.35943183200766
C         6.05019694329760    4.72175698683683   12.96365417104426
H         5.33152752355399    5.23517381125958   13.61535545849115
H         5.48061575804663    3.97472765347835   12.40580732214332
C         6.63699061768104    5.74726882342599   11.99522152600738
H         5.83505872827186    6.41171184249245   11.67348039101345
H         7.38174210867386    6.35418027035670   12.50299626795553
C         7.28137413647073    5.12094509380377   10.75531737060472
H         6.54610699196545    5.04878954183608    9.94312655603642
H         8.10253613731098    5.75329360205258   10.41411645669074
C         7.53789960060240    0.81758027096457   13.44135459141090
H         7.98131913644122    0.70335417529128   14.43139105237020
H         7.27350994820203   -0.19165392403899   13.09698202656119
C         6.24771476016519    1.62787904911109   13.59611249842547
H         5.52695795211969    0.97514117076506   14.09355193722560
H         5.81990655394680    1.86755389768701   12.62250308258120
C         6.37122975899631    2.88439260680613   14.46280001625704
H         5.36266854736254    3.19321191813121   14.77020614293463
H         6.90517886264692    2.61094903286442   15.37383012838740

