118
CSD_code = UBOTIR | q = 0 | S = 0 | Stoichiometry = C44H68Cl2OP2Ru | MND = 5
Ru        2.06301193178619    4.48053484887787    8.55597896509851
Cl        1.95603353683809    3.81763796897215    6.29995304960157
Cl        2.92692233656331    5.12528879101629   10.70512785862682
P         2.68133009068256    2.39476071816654    9.21402059202895
P         2.51735814869821    6.63014142699434    7.98060872179458
O        -3.61058229463705    5.64692313233680   12.59554740646750
C         0.13519454121916    4.42685702566965    8.62810537990504
H        -0.34620666074103    4.09728282659549    7.69319120875599
C        -0.81009624959473    4.73332269515647    9.64382156095085
C        -0.44447601732258    5.16612525294112   10.93728564209590
H         0.60303464218001    5.26551317189920   11.17657483115118
C        -1.39400049730555    5.45597269563126   11.88127767250655
H        -1.11314596197773    5.78635615990843   12.86873343911537
C        -2.75932369641502    5.33184618549876   11.59031128143985
C        -3.14360430688188    4.90341944067179   10.31939987178529
H        -4.18612898323174    4.79547174773404   10.06238818116562
C        -2.18664789148690    4.61166207076166    9.37279157374763
H        -2.49989596269632    4.28141996509363    8.39205123457235
C        -4.99702154879377    5.54521190385897   12.37382574197586
H        -5.32571030017022    6.21435058992854   11.57234851207660
H        -5.46774789373025    5.84560177650934   13.30853578830630
H        -5.29124186222450    4.51839359762140   12.13472378697538
C         1.83264720361024    0.76340053008362    9.15011462333709
C         0.37311628750567    0.79531498907151    8.73404648227202
H        -0.06826319297237    1.76007285127098    8.99912704720975
H        -0.17052204917012    0.00929587594172    9.26831183618116
C         0.22137682995356    0.59762328371393    7.22853043336270
H        -0.83796933552729    0.61590084502397    6.96488494641082
H         0.71274295372197    1.42810955929475    6.71542256742608
C         0.85371528590241   -0.71691944711785    6.79428913436694
H         0.72573852722768   -0.85926371559819    5.71974515399825
H         0.36549510213390   -1.55033315259464    7.30664862000733
C         2.33564237513692   -0.69297032008664    7.14017694269051
H         2.81493416467484   -1.62898735125021    6.84333498277899
H         2.80598066917549    0.11799603114370    6.58228238918102
C         2.54978536040082   -0.47055167213153    8.63647837949976
H         2.16482126413523   -1.33843010287062    9.18320279683193
H         3.62108890595063   -0.39778356421314    8.83160203617096
C         4.39103796501435    2.33603027509916    8.80047480108824
C         4.81585674259507    2.20920688637089    7.37935093479923
H         4.01660117487088    1.78981840840479    6.76516857003684
H         5.05209908319816    3.20525607346124    6.95324008338938
C         6.09046552854219    1.36372084305535    7.28617648958629
H         6.42933641969050    1.32585143665990    6.24883544849645
H         5.86759327283180    0.34224219944328    7.60347074485415
C         7.18150660363599    1.95063560963466    8.17707834239210
H         8.07993373701814    1.33198277331943    8.11946035057856
H         7.44408463305530    2.95028092317016    7.81920198493290
C         6.70733684794315    2.03872285401942    9.62480884933425
H         7.48360122486490    2.48524598140271   10.24982381948363
H         6.50859067796823    1.03389313353013   10.00545615178661
C         5.42628605020065    2.87534360407424    9.72269846136986
H         5.68994472353197    3.91590863781029    9.44333846782865
H         5.05805822944202    2.91061951133519   10.74972879582232
C         2.17944098459759    1.27219992312992   10.58097327539984
C         3.21370222166514    0.48691071972411   11.36610338853791
H         4.10608332595125    0.32417580296426   10.75829585557630
H         2.78665421405593   -0.49279853622459   11.60630828756541
C         3.62098067121768    1.17899679695415   12.66569630390748
H         4.31359269050311    0.53514447381852   13.21315317645691
H         4.13716104892944    2.11288364457694   12.43641103368892
C         2.40210961871838    1.50564044698029   13.51645553473875
H         2.71375280583091    1.99579073374634   14.44052722618784
H         1.87538207562233    0.58517746102601   13.78200501900882
C         1.48295662082347    2.42048189968550   12.72033454856375
H         2.02103392969974    3.33132100082684   12.45177950647731
H         0.61188931157333    2.70422316729769   13.31404040952372
C         1.01408106066756    1.73265097618874   11.44171095260574
H         0.39750398050172    2.44255332006682   10.88452063169051
H         0.39745602798764    0.86446238002575   11.69699369785023
C         4.21972175932502    6.55155501120243    7.53866033533594
C         5.27962599904205    6.61545857560831    8.58152964848751
H         4.90605253998079    7.08671284185800    9.49285354814495
H         5.60927669048332    5.59468707167926    8.86383915588780
C         6.50875926399184    7.35476362517608    8.04081273078784
H         6.24700360223494    8.39988674654130    7.85887561802265
H         7.30508400077624    7.33499333498266    8.78794087567800
C         6.98795191809454    6.71450302689814    6.74125667177095
H         7.84911680179832    7.26376455992080    6.35400176929486
H         7.31100524429880    5.68843386805534    6.93896139048454
C         5.87133708341558    6.70233750028565    5.70129427647436
H         6.21508140362897    6.22048286576848    4.78374380260902
H         5.58896499793818    7.72879892937342    5.45519188742544
C         4.64500580211630    5.95858552606195    6.24195709123504
H         3.82821871170367    5.96613423740384    5.51809506284590
H         4.93758432305423    4.89785759638872    6.37733600968802
C         1.54627290913418    7.90044318084923    7.07429759479143
C         2.14439246924140    8.68522980442704    5.92243887488086
H         3.22203317232629    8.79546590330880    6.05439969568364
H         1.69946419166590    9.68636905871790    5.92652741303734
C         1.87856391874026    8.03084816951619    4.56740112138279
H         2.27150675328602    8.67220305262205    3.77486903542245
H         2.40103643671956    7.07425738041025    4.51730515470439
C         0.39250306893456    7.77440720727976    4.36278828912818
H         0.22800391850209    7.29632410945387    3.39551552185994
H        -0.15362488602641    8.72160727310278    4.36979302737292
C        -0.11291180443007    6.87860565555781    5.48445001697222
H        -1.17181520445947    6.65215369376776    5.34452998585633
H         0.43976755805627    5.93572961834984    5.47711327137510
C         0.08690726381903    7.55163228025401    6.83937636263612
H        -0.25958769630096    6.86388328320646    7.61633596754152
H        -0.51532027059258    8.46430572687742    6.89301499518663
C         1.95350844959993    8.29270930375855    8.52678525723255
C         0.84618231637480    8.34133764135587    9.56576148909026
H         0.18776636389649    9.18740523849892    9.34234512864679
H         0.25436658256361    7.42408458460791    9.52675074144588
C         1.40181550135902    8.48561561015013   10.97941367848223
H         0.57271282161466    8.53433450838996   11.68772375770006
H         1.99678225517268    7.60100947052692   11.21451832568399
C         2.27417623698094    9.72800989235371   11.08736685025548
H         2.64829153157758    9.83905887213207   12.10670406752117
H         1.68806081429239   10.61794419219732   10.84319389712148
C         3.44078955296739    9.59344284853223   10.11930663140130
H         4.02504114347228    8.71813038468821   10.40763243472243
H         4.09314127531393   10.46820567268778   10.17643056635688
C         2.94819539651600    9.42847793375017    8.68252122011438
H         2.45719796528510   10.35581755949953    8.36836151285449
H         3.80979089477045    9.26685357771765    8.03135642301126

