61
CSD_code = UBOTIO | q = 0 | S = 0 | Stoichiometry = C27H26MnO6P | MND = 8
Mn        1.62267967772723    9.37562962898358    7.13614588371185
P         2.97428828868145   10.45523339657573   10.31081512801971
C         1.56349511518827   11.35937215967017    7.96181728454631
C         1.66971687712259   10.40621514692585    9.02339583474866
C         0.51275942771077    9.58621342600495    8.96498158114162
H         0.22606351549382    8.84579233501641    9.70119227301361
C        -0.28926448984037   10.02914926734415    7.88319716336603
H        -1.30307246240184    9.70485495389778    7.68416542433321
C         0.33662306549122   11.15470223127618    7.28121997498575
C        -0.27308014577306   12.07906771774562    6.27743686738659
H         0.48964627048367   12.47944191470665    5.61318656152626
H        -0.73588947288208   12.91527575738865    6.80603273090557
H        -1.03489544856789   11.57167955489534    5.68741866084658
C         2.46052573907170   12.54878904399758    7.80445388228213
H         3.35741319248153   12.43437237090248    8.46368510052493
C         3.72594225409054   13.76533351899496    6.27595680453906
H         3.96519378659268   13.76913918266250    5.21172857072248
H         4.65049236313661   13.62464838459737    6.85680194710255
C         3.02423129797630   15.05188722819322    6.71026145690198
H         3.69997475914136   15.90340207233001    6.66730331839774
H         2.16735663051904   15.23434602311196    6.05878657216645
C         2.52606778029804   14.85770627307646    8.14386747888076
H         3.39320032348649   14.75867231415411    8.81906363193233
C         1.66105194400205   16.01771861314019    8.62764902346868
H         0.81415372696297   16.15854456823250    7.93849145802320
H         1.25565318528096   15.76927197993816    9.62049163190633
C         1.74447540238410   18.30268217979499    9.12770384098175
H         2.45001731983931   19.13057130026136    9.13361548296536
H         1.34815767518383   18.15111417396117   10.13914043370514
H         0.91049029568971   18.53653075891280    8.45450864362493
C         2.12593855764397   11.49023101956491   11.55866924060861
C         2.65248931519157   11.47634132622175   12.84988008376028
H         3.48002362471264   10.81554615729235   13.07501217228887
C         2.11880097753119   12.28806636326651   13.83140885998784
H         2.52489488415201   12.26245691030437   14.83221571497349
C         1.06761852391834   13.13974582807958   13.52874443011799
H         0.65016236243416   13.77675420476689   14.29468132923548
C         0.56160522984955   13.17974711382683   12.24095379845423
H        -0.24986627414568   13.85153861343448   11.99925280904761
C         1.08847019478791   12.36381335101565   11.25454157927014
H         0.69667730963063   12.42239462352681   10.24865040795663
C         2.66428774586788    8.75823055414242   10.94152423138662
C         1.83257547921162    8.44511764685424   12.00924771401955
H         1.33634149437635    9.22987510379308   12.56348901902910
C         1.63248421213136    7.12100536465448   12.35961345784894
H         0.98106093584450    6.88198599655665   13.18826230203882
C         2.25347926211712    6.10658424459682   11.65041406897368
H         2.08694565125117    5.07582311308154   11.92604579295575
C         3.08775886121297    6.41516860229741   10.58809831816849
H         3.57334555891035    5.62807410851604   10.03127707926014
C         3.29764317248114    7.73562325891938   10.23922200951846
H         3.95211162148796    7.98447131782887    9.41193065049639
C         1.30350040003012    9.35068048399422    5.37929685872162
C         3.39129536888123    9.49770507825167    6.94437664172679
C         1.59662311157131    7.60333556309277    7.33545934311859
O         1.73915772809596   13.68092958632463    8.22782564222552
O         2.87537537499001   12.65134881884417    6.47397110317835
O         2.45571747724243   17.17433182730694    8.68459509481426
O         1.04982366033108    9.41700791617192    4.26184676808079
O         4.52268039340338    9.67144596912131    6.88533125598170
O         1.54900989028870    6.47156245765210    7.53284757609610

