79
CSD_code = UBOVEM | q = 0 | S = 0 | Stoichiometry = C36H30O12W | MND = 6
W         0.00026185593892   15.66949544338105    6.73521988000863
O         0.89739323808455   16.91810275086092    7.82004759678805
O         4.54227528607592   15.45009510545113   11.67228493531236
H         4.31286479316396   15.82487350640220   12.53063205672592
O         1.53003493439781   15.51432490950918    5.64996205214184
O         2.07949454748991   11.62375497362019    1.79738276227312
H         2.29246921258405   12.00976112137713    0.93980671465732
C         1.77229911102400   16.57387293461149    8.78089332182737
C         2.89369840398781   15.79786318231478    8.45065533714071
H         3.02708373202197   15.50071554650927    7.41279200706458
C         3.80274135506684   15.43156853811769    9.42229335498136
H         4.66520093204977   14.83050595937153    9.18175744652578
C         3.62082163448895   15.83861698002919   10.74237089853792
C         2.52257754075403   16.62246240428195   11.07133981279880
H         2.38164197676396   16.94959271396760   12.09336860926786
C         1.60650496729245   16.99511105942126   10.10218382648419
H         0.75410188072440   17.60686729699595   10.35622628171189
C         1.66812766573976   14.58407089513389    4.68940667369972
C         1.55295615701061   13.22502359029436    5.01878891004215
H         1.36030871170730   12.96047221412146    6.05610609088210
C         1.68991935712872   12.25481454831428    4.04679451619097
H         1.59806748543814   11.20742351011781    4.28650498242487
C         1.95519012972372   12.61586439950597    2.72747625666470
C         2.08780258158195   13.95890060684922    2.39921890322038
H         2.30228086602159   14.24468418633294    1.37765043692758
C         1.95252471529326   14.93816390971199    3.36853222110861
H         2.05772854905360   15.98231468820820    3.11528977582280
O        -1.52962639124259   15.82205119481111    7.82018060022737
C        -1.66896294362922   16.75190207049261    8.78096481059694
C        -1.55747354021673   18.11103918374637    8.45063285636092
H        -1.36668929278785   18.37496829194582    7.41275073087676
C        -1.69461892953946   19.08154788894745    9.42217729337855
H        -1.60506815215811   20.12894900254219    9.18157541448715
C        -1.95617550082143   18.72061307744872   10.74228664309278
O        -2.08031738560705   19.71297497595794   11.67208686593673
H        -2.28968662818920   19.32693190428450   12.53061168830548
C        -2.08612771174627   17.37762498767488   11.07133201798621
H        -2.29910180143347   17.09214689934416   12.09336590989481
C        -1.95095768635045   16.39784832285903   10.10226499961589
H        -2.05471022432608   15.35380964752681   10.35638757304135
O         0.63301532262522   14.26836533151043    7.82017688835231
C        -0.10284193238889   13.68267813624638    8.78074044009693
C        -1.33527646681121   13.09915622705065    8.44996691315413
H        -1.65885285916970   13.13200908789128    7.41196049711973
C        -2.10732648006487   12.49493820682351    9.42127369419088
H        -3.05886601705241   12.04831093050742    9.18030313395651
C        -1.66446560398708   12.44916044233854   10.74156014786554
O        -2.46198716743902   11.84532210284482   11.67111815639000
H        -2.02318298099778   11.85686314814177   12.52971133459362
C        -0.43680460558989   13.00867589274042   11.07106660885655
H        -0.08351705639187   12.96734600299412   12.09326798119548
C         0.34425321476733   13.61584176800793   10.10224828359590
H         1.30003810277452   14.04840261465611   10.35671224356183
O        -0.63014437822725   17.07156175244682    5.64978933778648
C         0.10599972911188   17.65718434961106    4.68949807825317
C         1.34006194623771   18.23777702458293    5.01912125553629
H         1.66550669885974   18.20287002577010    6.05640251997800
C         2.11176127643272   18.84194273959746    4.04734683814106
H         3.06439877794314   19.28655795920205    4.28749060336681
C         1.66686663949364   18.89072016173152    2.72792558568556
O         2.46359015997341   19.49507808210268    1.79808136869772
H         2.02404892235285   19.48320030390298    0.93962429389429
C         0.43764806727517   18.33358066521440    2.39949216900837
H         0.08301959189784   18.37678208872738    1.37792274620425
C        -0.34268260522062   17.72631932845700    3.36851975713793
H        -1.29936785331553   17.29512690266905    3.11515009268219
O        -0.89894351822906   14.42239081243140    5.65009432097775
C        -1.77411554586067   14.76707371765738    4.68973741391059
C        -2.89380273876441   15.54581668586567    5.01915411072248
H        -3.02612640155100   15.84561772346609    6.05631744325194
C        -3.80292427088138   15.91176010719052    4.04731246908341
H        -4.66415312032635   16.51471841689866    4.28728311904428
C        -3.62296311378784   15.50146257085610    2.72805561495692
O        -4.54492956624756   15.88874418214822    1.79822969560603
H        -4.31494720459205   15.51363345302767    0.93990033961906
C        -2.52592864939203   14.71529750869862    2.39979968946289
H        -2.38616620986966   14.38612549039313    1.37836470616968
C        -1.60980122169322   14.34344450067139    3.36888774544042
H        -0.75814631445144   13.73031913252832    3.11568929740323

