75
CSD_code = UBOWIR | q = 0 | S = 0 | Stoichiometry = C24H32F6FeN4O6S2 | MND = 6
Fe        7.31849941324099    3.31103040022904    7.21986983868774
S         4.33918575406662    3.03875702695981    5.59726594096823
S         8.94592024762866    3.85631531226395    4.36272017032549
F         3.68104749281185    0.99698997859913    7.16363695296992
F         3.27768480932925    2.93311080630665    8.01509304980473
F         1.95318053673349    2.11791419967714    6.52366821462114
F        10.88107722353264    2.85079537898456    2.76532865097637
F         9.49370143408339    1.39177811919519    3.54293621152224
F        11.00673249606234    2.22432595722708    4.82274151796541
O         5.62389238264807    2.81297635852842    6.24439506330918
O         4.12138482762118    2.29021158543322    4.40526043869036
O         3.89682130045053    4.40971030238438    5.62776094116260
O         8.34396692043758    3.16821079958588    5.50056704657818
O         8.10864306417536    4.05851789970720    3.22811645881252
O         9.79127401581614    4.96057575061821    4.75710835353962
N         8.98356956143433    3.86466210354549    8.24526169832749
N         7.00628967430600    5.33257171974249    6.93696550306728
N         6.11072242977058    3.48560826084973    8.80451752408471
N         8.01061938649711    1.53216484839222    7.58237708117205
C         8.73489300411549    5.23899758155705    8.70282545342324
H         7.96387752280787    5.18636048933995    9.47881090026060
C         9.97064270496582    5.93380448854661    9.29430050040768
H        10.32477556807899    5.37562135053796   10.16349228539807
H        10.76547186920557    5.96241157036264    8.55063583855506
C         9.65861636274510    7.37243355838968    9.69142637489969
H         8.88593807191642    7.39227301171460   10.46339618231322
H        10.55488416266500    7.83829500054487   10.10340354509833
C         9.18038357644489    8.13949060097031    8.46517166870236
H         9.95579545059974    8.12964019852324    7.69806383199886
H         8.97778912753743    9.17919332471271    8.72687177924606
C         7.90885598772787    7.48935462927843    7.93056809246849
H         7.53650253896904    8.05347573981492    7.07554180020213
H         7.16495093574931    7.52692389517908    8.72841797105909
C         8.17506105454247    6.03496402434206    7.51533155308881
H         8.93264145615643    6.04042994438842    6.72802013895471
C        10.22604056703641    3.73078006534910    7.48491419630920
H        11.10107163372878    3.85507488532562    8.12886725118035
H        10.26304704251891    4.43549447566373    6.66191292874045
H        10.26375531049051    2.73699513345843    7.05225923826317
C         6.79631222922475    5.74663792115366    5.55120283336198
H         6.38554701413644    6.75964302174119    5.49860001982436
H         6.09306823146499    5.06391105453072    5.08131888117885
H         7.72458015982572    5.71231100194959    4.99391744328919
C         9.01426756113144    2.85886360149543    9.30494854235130
H         8.17396622645181    3.02008576511039    9.98098328617702
H         9.94551487157860    2.89531865299776    9.88524561087591
C         8.88125401138102    1.53448357926864    8.60604907159706
C         9.65706458928480    0.44245216277335    8.94472905483321
H        10.33851477292988    0.49718058714837    9.77903755530027
C         9.54824459780511   -0.71295496883535    8.18269653509970
H        10.13523900892694   -1.58698939978324    8.41673243403863
C         8.68658978143068   -0.69773858993201    7.10462784512664
H         8.59100907172662   -1.56356588565884    6.46963000466052
C         7.92291669532238    0.43621779786880    6.82232270267973
C         6.98761355923519    0.42194307594102    5.67201826670044
H         7.03899882430930    1.37285788106075    5.15396689017344
H         5.96217983730415    0.31423379065301    6.01725966337374
H         7.22280890980154   -0.39160393809332    4.99330656169332
C         5.75754514751937    5.55965464979276    7.65496926500825
H         4.95322236414977    5.21255193213141    6.98887684960352
H         5.56937215108928    6.61787249790806    7.85633418704019
C         5.62380319144805    4.73397553683979    8.88191178002491
C         4.91285839754150    5.20352307423430    9.97611152537520
H         4.56553945715021    6.22380024642809    9.99194472617637
C         4.63563946870777    4.33939237738102   11.02131119352042
H         4.10678142615938    4.67502544840380   11.89916766270186
C         5.00145191626269    3.01555925917638   10.86700027372309
H         4.72585323383241    2.27997706150499   11.60570962945230
C         5.70743195744026    2.61079025312615    9.73892533361763
C         5.93929940732624    1.15213223783867    9.53007549999591
H         5.95684651555083    0.95247196371013    8.46594599224170
H         5.12836212886637    0.59285993585350    9.98973216715021
H         6.87536165342956    0.81580973727234    9.97053689527866
C         3.23073912183348    2.22508832064774    6.87462824090810
C        10.15159558977795    2.51678758013604    3.82730338869742

