41
CSD_code = UBOXER | q = 0 | S = 0 | Stoichiometry = C16H17MoNO6 | MND = 6
Mo        4.40643858360333    6.94945476120028    1.53433299692303
O         4.09405900992882    6.12587840451346    0.14151553134080
O         4.96418873993716    8.49384421896174    1.39091980590102
O         6.00428863565425    6.00081813418984    1.86078933497375
O         2.67984942506424    7.23231548193748    2.08358277852598
O         3.63479181313151    4.53637347803021    2.28972619943820
H         3.89537057798285    4.44450340031525    1.35818251760506
O         0.31047451391617    8.14511320653885    1.45148020712784
N         4.66222182878148    7.00652953346234    3.77098371048680
C         6.62965531329975    6.02119927728328    3.01828307502241
C         7.93106582443452    5.54476461885101    3.19388515489042
H         8.46154030948680    5.16971545346170    2.33091522376110
C         8.51518098812744    5.54763175958923    4.44874463631576
C         7.78789998894265    6.02910060673277    5.54108930335589
H         8.24120554615982    6.01713481158641    6.52106872790628
C         6.50880779400454    6.51883012086985    5.39112475765650
H         5.97435261232836    6.87541948469619    6.25912929375513
C         5.91754001402463    6.53867740023127    4.12603026479219
C         3.91854551767473    7.68679825985371    4.58113500000690
H         4.27661421330351    7.91626755525427    5.58704067612923
C         2.62490761998721    8.19637870552626    4.25455388488265
C         2.05316069056714    7.94284461185267    2.98996333890166
C         0.76250506763979    8.46224770285650    2.69135878739317
C         0.09136060786111    9.21490455443673    3.63540085215686
H        -0.88334662316867    9.62355876572854    3.42158054797912
C         0.66701767392168    9.45804594684269    4.88467723705072
H         0.12219256514297   10.04796940467711    5.60520912312867
C         1.90456782176241    8.95919013456186    5.19501796948891
H         2.34653122146458    9.15173097382079    6.16095348575317
C         9.90775769726552    5.03740397136266    4.65239822914764
H        10.31882357697026    4.64649741764603    3.72642067357853
H         9.91722615804868    4.24844347136306    5.40275569335164
H        10.55229006319120    5.84014700337688    5.00825657513154
C        -0.90252992637302    8.71086971703092    1.01637484865632
H        -1.74725120564030    8.36435787354738    1.62143986247820
H        -1.03131571902678    8.37286495162008   -0.01014504275095
H        -0.86394591512911    9.80425108658310    1.03593402797502
C         2.23543174296050    4.30492286214860    2.35645629528212
H         2.01662550494407    3.25876195608944    2.11761976425285
H         1.68920024390537    4.96011747030131    1.67015654174166
H         1.92139988391832    4.50892145106767    3.38095810850491

