98
CSD_code = UBOYAN | q = 1 | S = 0 | Stoichiometry = C36H55N2O2P2Ru(1+) | MND = 9
C        12.05324505692295    4.99725174577965   20.11572644918589
H        11.62488927060840    4.02878258029671   20.38153157729060
H        13.12003863650333    4.87496306185996   19.85887859630887
C        12.65935542346330    7.08239859002753   21.08188111498264
H        13.69297365387719    6.86195694310232   20.76425802511665
H        12.68822265460469    7.60827412325192   22.03878535245315
C        12.47587414630113    9.88524940417706   20.50018560757814
C        14.00547608513615    9.85304964614427   20.50719198587989
H        14.39956153098933   10.86275882363574   20.60367873945646
H        14.38367057477891    9.41805510308317   19.58280035417979
H        14.38599504912088    9.26409208025666   21.33775770547733
C        11.98540851808542   10.97711506340159   19.55729398430313
H        12.30671827818962   11.95267616065115   19.91758555361566
H        10.89883846268402   10.98431036915272   19.48815372569342
H        12.40690408285593   10.81839832658727   18.57258435913576
C        12.26379223587140    3.47601949639108   17.29583149050538
H        12.84929708081508    4.30481635522452   16.89582748630197
H        12.17871615718243    2.70167294027656   16.53619521039926
H        12.81625045266845    3.06307168334772   18.13621837372152
C        10.19854852944517    2.90601440655602   18.61944836474635
H         9.84785545099372    2.09550360252228   17.98283499383053
H         9.33737450458659    3.31182696331845   19.14617793528337
H        10.87560177293529    2.46798108277789   19.34725871034697
C        10.87833970775867    3.95418429628560   17.73459483777408
C         9.98840772956051    4.21435983123482   16.52281362487475
H         9.98297524140685    3.34574936301694   15.86712244615510
H        10.36239162214625    5.06568498144164   15.96905661599436
H         8.96102824480482    4.41135140391640   16.82205584379398
C        10.10711187735966    8.15028773985667   20.31103807475526
H        10.01028740504002    7.68090210114911   21.30507736605523
H         9.75901207656516    9.18438024348018   20.36222622212700
C        12.82749941173090    9.17184966787651   16.27262781659071
C        11.40352825162018    9.14576377810645   16.38716258596757
C        12.08147526742692    7.14970591397037   15.39282345618527
C        10.94152055907920    7.88147125819587   15.88347160222223
C        13.75546192617850   10.33677211611293   16.41583448733407
H        14.29217895935971   10.47336712601221   15.47607065210025
H        14.49911773860930   10.16296291616033   17.19321825425978
H        13.22161569891718   11.25750464090179   16.63606198976253
C        12.09720395435703    6.01629199593036   14.41174354632920
H        12.55332861612018    5.11481026338761   14.81641394198184
H        12.68691234754788    6.32216816746050   13.54661348207348
H        11.09636383845959    5.77482435520686   14.06324112377611
C         9.49248265516662    7.61791645475249   15.60942833655479
H         9.08134754924724    8.45194992669880   15.03858505104492
H         8.93593189369749    7.53728048492115   16.54148058684726
H         9.34451802401762    6.71060067453338   15.03134850267097
C         7.87699189833782    7.77990592581176   19.50572752902978
H         7.54926412088812    7.43521446383603   20.49975641633777
H         7.31646385096647    7.22163705755948   18.75137285210895
C        11.93973593510292   10.18159741827010   21.90164693898717
H        10.85908033205978   10.29934940632961   21.90461396924335
H        12.37402615992916   11.12169652738564   22.23793797311237
H        12.20931288074487    9.42457851071262   22.63264859845076
C         7.49606593072372   10.07766561978251   20.46720299555433
H         7.62800310846246    9.66311865087647   21.45727858207385
C         7.34580164791339    9.79153546623897   18.09703312533668
H         7.36034559118029    9.15073269405500   17.22801674391863
C         9.50903575722943    6.04050183576966   19.32644359220351
H         8.75177562742039    5.58300338658397   18.68453596569206
H         9.42268326100076    5.61604889404358   20.34222390759241
C        10.90016136451849    4.21340473614033   22.68228937431561
C         9.58860582400004    4.64584315207631   22.84148973884372
H         9.38399477133029    5.70560907386005   22.90287305786050
C        11.15788926224818    2.84992170486752   22.63323508908198
H        12.17518012070778    2.50091873207724   22.52290381533619
C        13.23827291048077    7.93562457170882   15.67573083472836
C        14.63661528473883    7.61567641931211   15.27061621498793
H        14.89788675502534    8.18131835563465   14.37414514262033
H        14.75217794193250    6.55443247012105   15.06284191518502
H        15.33594236621146    7.89118956576698   16.06027369877802
C        10.47641748423826   10.29113728286351   16.63719718453554
H         9.75879788580733   10.06179500689469   17.42263727892093
H         9.91345118107551   10.48443512253522   15.72183228036415
H        11.00949218232456   11.19946764497576   16.89767956748888
C         7.07667212294038   11.14168552981415   17.95093951919805
H         6.89805781229582   11.55030754290831   16.96789222547451
C         7.02640759238566   11.96476304798727   19.06285617943515
H         6.81438405685105   13.01656353907456   18.95003132286137
C         7.22979030666870   11.42824964988573   20.32290861994838
H         7.17257728671549   12.06002806042018   21.19620888646041
C         8.55406469182793    3.73350938175766   22.94307204087544
H         7.53964154959736    4.08036417501740   23.07271394934771
C         8.82030978281793    2.37509176276211   22.88943769098202
H         8.01463551655697    1.66232206611437   22.97360767640238
C        10.12398487180032    1.93485349733957   22.74062209394150
H        10.33800032422393    0.87743856227924   22.70929324607322
C         7.56908744727491    9.24553039149054   19.35495018318365
C        12.00203487966739    5.22484648014060   22.51175869279115
H        11.92234654619482    5.98162299307172   23.29679342605064
H        12.98609796582578    4.74056010995451   22.59698836515306
N        11.84387127841451    5.90159544960859   21.22126860042073
N         9.30563966060757    7.47785983711546   19.30557155485345
O        13.85932510338381    6.21437717963263   17.97390797247233
O        14.13023376858476    7.42828242741564   18.44161678579311
P        11.15676889667660    5.59530552990329   18.62146237787158
P        11.88875523504014    8.21631469592312   19.83954825629663
Ru       12.31029366220643    7.42799014186040   17.63096980839463

