72
CSD_code = UBOZUG | q = 0 | S = 0 | Stoichiometry = C25H38CoN3O5 | MND = 6
Co       -3.73229474135165   -3.24121467977514   -1.39939001188313
O        -5.43177872106998   -4.00946419747040   -1.39711069686145
O        -3.09553296409493   -4.82444232255809   -0.60312141977371
O        -2.48362623704555   -6.90024526985825   -1.08990415700828
O        -3.98716799665216   -2.30087477020575    0.19081419866716
O        -2.87031750426319   -1.09631299051696    1.68146901361617
N        -4.25930104131000   -1.66954848038344   -2.45656439389027
N        -3.22299115904580   -4.10825030907205   -3.08456319556875
N        -1.90100473831208   -2.48221953907551   -1.37154882023700
C        -4.17221865321582   -2.00819822519792   -3.89855582541374
H        -3.28862050405097   -1.53008664865140   -4.32768665793625
H        -5.04992021972443   -1.61821015532402   -4.42259075010827
C        -4.10550790994811   -3.52731919592251   -4.10256701249218
H        -5.10335120561581   -3.94644042521913   -3.96193633386440
H        -3.76608879090192   -3.76621803965053   -5.11911755980055
C        -1.79516129275271   -3.84446160645425   -3.37621773042798
H        -1.72525384024274   -3.05399379535170   -4.12649364271573
H        -1.32333184864664   -4.73811224690203   -3.79800454788534
C        -1.05062960877801   -3.42661964256687   -2.10276308777447
H        -0.88368228958872   -4.30089367195126   -1.47282515364177
H        -0.07443222133183   -2.98912260271184   -2.34941127213204
C        -1.89350967732723   -1.15167579295934   -2.00619464001721
H        -1.27148505692145   -0.45681417798084   -1.43179094689380
H        -1.45969536187492   -1.23031638128555   -3.00559548425055
C        -3.31724458899072   -0.59912499435914   -2.09273930525350
H        -3.61141441517365   -0.21622980401961   -1.11434219036125
H        -3.36930554731008    0.22897074265472   -2.81179551316394
C        -5.62651543540797   -1.23483987598566   -2.11507460094415
H        -5.63829998165357   -1.04791956780481   -1.03595770253501
H        -5.85124928060781   -0.29678719978171   -2.64022002376428
C        -6.68485522593041   -2.25599830096474   -2.42128187281846
C        -6.56175296743601   -3.54535818053708   -1.87092927967648
C        -7.72333583185978   -4.36875577330439   -1.87341309471046
C        -8.82466351954327   -3.94158737709730   -2.58828147048585
H        -9.68745916499830   -4.58344140137024   -2.62457555040419
C        -8.89654475150584   -2.72277204299717   -3.26221425724010
C        -7.82156512994877   -1.86718184982392   -3.11498435879463
H        -7.84786459946168   -0.86776790899221   -3.52190688009475
C        -7.75798279854285   -5.63785867259564   -1.03019407160123
C        -7.44491627509207   -5.24729339614743    0.42106123536421
H        -7.44877669920963   -6.13147083292621    1.05445253146695
H        -8.19040381458731   -4.54701703187752    0.79263517899632
H        -6.46579067715589   -4.78163105255398    0.48382629653180
C        -9.12933492599007   -6.32237815722553   -1.05407938265158
H        -9.10782471179726   -7.18074933949755   -0.38580661680206
H        -9.37699497090936   -6.68231927060918   -2.05089651514363
H        -9.91134974589112   -5.65062136804115   -0.70777794119789
C        -6.71293985101490   -6.65128498162846   -1.51247958998290
H        -6.86979687940328   -7.61032475287433   -1.02387036434277
H        -5.71949919726829   -6.30288565510597   -1.25378441418826
H        -6.78643136909832   -6.80008801533163   -2.58954929515726
C       -10.14628839203864   -2.37332001969985   -4.05481253413119
C       -10.37624145614045   -3.44082034476690   -5.13397259722397
H       -11.27043681444872   -3.20871224300400   -5.70903011784219
H       -10.50116670438757   -4.42588414030020   -4.69398685684257
H        -9.52775607211692   -3.47717139421964   -5.81460228290668
C       -11.35192436023489   -2.32954947579182   -3.10603880612401
H       -12.25092641527585   -2.04742820838765   -3.65058576241538
H       -11.18100386265034   -1.60058685780807   -2.31695135226711
H       -11.52338686704667   -3.29692112026838   -2.64294641495584
C       -10.03712491723820   -1.01300997661831   -4.74976903355327
H       -10.93866704134199   -0.82753980857940   -5.33034104752752
H        -9.18786391468044   -0.98859080777829   -5.42943936499507
H        -9.93618572400494   -0.21031578780478   -4.02325464570562
C        -3.42606722520052   -5.54014008409606   -2.84756853868995
H        -2.88484505389637   -6.16965306124955   -3.56103469879378
H        -4.48811299292138   -5.77579958769104   -2.89572246830328
C        -2.96088160960952   -5.82750022451164   -1.38201759785521
C        -1.61851021640733   -2.38288448709154    0.06381872905771
H        -0.76567091708689   -1.73295516415875    0.28484366633247
H        -1.43856320672118   -3.37883900097052    0.47131215838842
C        -2.92206029669522   -1.86610697736096    0.74924874359552

