55
CSD_code = UBUBOL | q = 0 | S = 0 | Stoichiometry = C26H16N10NiS2 | MND = 6
Ni        8.45185582944939   15.26155095780454   -0.22425579575129
S         5.16564349439625   18.22953433554357   -0.22475330696313
S        12.22189673657518   12.99023857418631   -0.40184530636460
N         7.04398327832965   16.28127526907395   -0.77002761965920
N         9.82461429595815   14.17339151814262    0.28834514539540
N         7.54772869997619   13.40916970430358   -1.53879664223411
N         7.40470989332058   14.66309253369639    1.39125730574917
N         9.37019312607633   17.08592509196137    1.09370586371435
N         9.51222212077628   15.89297706098405   -1.79661038527869
N         5.44304045875931    9.40184929667224   -4.37120960617517
N         4.40539235630318   12.91966262795389    5.45770604906754
N        10.79162779504105   20.96018865758840    4.48144310435459
N        12.49722866658903   16.95520833690781   -6.09926036590898
C         6.25909535677664   17.11886838569169   -0.50201473359249
C        10.84877668237167   13.69197911785747   -0.04401759449410
C         8.32411401922381   12.47685516186857   -2.08111870254746
H         9.38755926488363   12.57719761205232   -1.90955734222852
C         7.83365199074517   11.41652528227635   -2.82399344871855
H         8.49900266967042   10.67999543013529   -3.24639037480529
C         6.45472914577704   11.32459739733025   -3.01216830703527
C         5.63572505477655   12.30201745078601   -2.44631761723312
H         4.56498644685301   12.26446865729111   -2.57274611087203
C         6.23398891413380   13.31843540231681   -1.72194297789997
H         5.63606908232246   14.10198683581624   -1.27471931423180
C         5.89596148093459   10.26057967372918   -3.76451206691180
C         7.29530477995434   13.36114457354275    1.65514260884695
H         7.85020416069535   12.68646676152327    1.01763693439330
C         6.53129044464775   12.86112205329511    2.69329512065334
H         6.46800860110304   11.79825896599694    2.86730024878389
C         5.84670477316732   13.75848456270466    3.51242530509666
C         5.97203169758698   15.12137564500100    3.24662368515512
H         5.46393154961804   15.85233529484603    3.85579483417122
C         6.75708976594268   15.51929657803544    2.17990639653428
H         6.85163295857550   16.57193652074615    1.95307250718054
C         5.04837375555449   13.29603475142874    4.58869076895262
C         9.07509459535063   18.35659004658611    0.83853905121467
H         8.53436760728784   18.54839740399676   -0.07849972949454
C         9.41595479269950   19.40053970415213    1.68130288391813
H         9.15169453753808   20.41808045098761    1.43978041066419
C        10.11019101141270   19.10199958913381    2.85359619175690
C        10.43133714961493   17.77078371003703    3.12101475862455
H        10.97382645250550   17.50376599931727    4.01452744951326
C        10.03703486844030   16.80662421071428    2.20989546056428
H        10.27132901378448   15.76248917447082    2.37373760461445
C        10.48656260230959   20.13079851925053    3.75360460237199
C        10.77750016718359   16.29051079132332   -1.66858243406644
H        11.16660795195356   16.37680550366595   -0.66382057298366
C        11.59159747691942   16.58106219241065   -2.74751977253909
H        12.61334819092513   16.89169855701091   -2.59592368844241
C        11.06718282419157   16.45454118089277   -4.03312483349763
C         9.73646213374582   16.05928535471070   -4.16754980833429
H         9.28727441391947   15.96139147991583   -5.14358169640739
C         9.00470991992781   15.79515620374834   -3.02482935870223
H         7.96625871030605   15.50292334238253   -3.10072606460758
C        11.86109623312129   16.72953050618774   -5.17472871331463

