72
CSD_code = UBUBEY | q = 0 | S = 0 | Stoichiometry = C25H38CoN3O4S | MND = 6
Co        6.23380754272156    3.69129782755691    3.77562022378011
S         8.08881425563410    4.24478147994150    2.61269506231530
O         5.93998011690773    2.24358573917084    2.63478524953294
O         4.43207962363879    0.70490375411964    2.12155732822022
O         5.31829896808653    4.95972292455726    2.73221920843720
O         4.73760433647705    7.10184870551341    2.70015558608538
N         7.15418039658482    2.53725153431712    5.07689218026272
N         4.49645833327746    3.10603785164648    4.65823040281979
N         6.29235643431979    5.11802001961903    5.12219915970021
C         6.18665219360738    1.48361759607971    5.42902047010085
H         6.14110545297518    0.78444409486335    4.59270298796231
H         6.52141254597008    0.93177402076545    6.31765177968918
C         4.79278987948313    2.07616747272598    5.66392734613930
H         4.73280438314543    2.51786813618893    6.66158044405000
H         4.05267930524337    1.26919189367422    5.61711583159283
C         3.93091226540698    4.32029011270684    5.24484310670471
H         3.12449506308994    4.09661767093942    5.95639313149869
H         3.51611673784391    4.92861395703514    4.44017081921935
C         5.05742465921197    5.09324276001736    5.94352987116894
H         5.28192763781377    4.62799977656521    6.90543486464699
H         4.72087623212899    6.11526725420908    6.14550866402759
C         7.48146923254737    4.84461135567052    5.93837914188659
H         7.48795183802191    5.44172923140530    6.85963998356171
H         8.36528679045266    5.10431019415033    5.35189633331297
C         7.52014922180136    3.34574194527764    6.26794478043376
H         8.52459296021679    3.07935274930387    6.60806112092992
H         6.82561068895495    3.12260132887300    7.07999129156456
C         8.35318284988624    1.88774348197866    4.48889348375024
H         8.06982066146104    1.54290673346806    3.48907303829572
H         8.61950107928143    1.01827190056818    5.10317255983569
C         9.54850948337161    2.79128222262512    4.39108424113802
C         9.55503211602135    3.88123519682882    3.51132594228183
C        10.74507392415804    4.63150634981440    3.36544077532777
C        11.81923173985443    4.29215652869358    4.17222970832323
H        12.72380526069754    4.86642862917513    4.08966555863727
C        11.81181645003711    3.24616546376046    5.09095951598508
C        10.65657713120710    2.49116798765787    5.17079271807514
H        10.60012288265390    1.63752081957107    5.82857133327217
C        10.89717773484159    5.75298301882965    2.33993209948514
C        12.30677252388470    6.36130891752684    2.32704650669031
H        12.54268119168292    6.84774279351658    3.27143619605953
H        12.35299871546195    7.11749449520547    1.54626767325462
H        13.06254028408814    5.61195776002361    2.10374173078662
C        10.64116530811965    5.18542927744478    0.93836047346936
H         9.64051409956852    4.77219347573028    0.86327970033995
H        11.35802015267598    4.39769103259809    0.71676168122262
H        10.74388448517117    5.97176626616494    0.19452408179258
C         9.91740485212923    6.89693821392579    2.63641537015091
H         9.99853526781051    7.20755338509232    3.67728354656134
H         8.89847283256480    6.59206673265029    2.42589965831675
H        10.14671256292553    7.75174221471006    2.00508131666800
C        13.05096606966031    2.97125992600271    5.92708644991182
C        12.87101910061522    1.77627221579464    6.86770311814011
H        12.67152727013330    0.86553837723674    6.30800658476400
H        12.06005518744922    1.94872481622792    7.57241366590648
H        13.78395199422236    1.62432181235928    7.43954003972312
C        14.23052878260281    2.66777679524075    4.99292507011225
H        14.46068783184349    3.51705478125380    4.35628134864313
H        13.99475955589712    1.81841454159464    4.35553125313860
H        15.11804947353306    2.42850626314478    5.57477604599023
C        13.36792946772730    4.20805191718101    6.77968476378081
H        13.55018128442785    5.08029635121312    6.15857706569652
H        14.25431265928592    4.02924837934532    7.38437542349627
H        12.53583408495670    4.43138231915005    7.44488615635481
C         3.75521458887586    2.55085327946856    3.52523671522955
H         3.39822598701675    3.36137661863831    2.88782295692546
H         2.91088409842720    1.92618162417220    3.83581528374412
C         4.76679022508605    1.73638830289613    2.65910103856567
C         6.34502257681808    6.36236665770942    4.34813989891901
H         7.34451998325306    6.50346581089668    3.93524224172990
H         6.07222570691765    7.24306040658361    4.93778981969714
C         5.37232338611419    6.16961451939921    3.13727978013965

