86
CSD_code = UBUCUS | q = 0 | S = 0 | Stoichiometry = C40H39Cl2NOP2Ru | MND = 6
Ru       10.21773931423613    7.31195234572355   12.51648493416394
Cl        9.30674819570161    5.93738014291141   10.71074268155756
Cl       10.98231968985798    9.05565191558627   13.96499523558349
P        12.37326646631559    6.74317710110652   12.11117076487559
P         9.77721297206993    6.01056589292240   14.38077250413029
O         8.04805599062072    7.99919779237878   12.37135169269767
H         7.93856185063225    7.22962013024760   11.76602372665685
N        10.23955464692609    8.76006309910940   10.89465079485305
H         9.81893005534125    8.28394864514738   10.08375428546593
C         7.95370613064634    9.19457771239386   11.62022899727563
H         7.36175588659855    9.89865057151112   12.21704552007781
H         7.42479712526280    9.00330276754282   10.67729647621100
C         9.32706812345618    9.83118848777988   11.31578501404814
H         9.73819026568393   10.25929433730460   12.24005919597374
C         9.13363560032979   10.93060890672903   10.26892713062159
H        10.00759397925161   11.57146696356462   10.19446300313019
H         8.29107242370462   11.55499639710514   10.55534403363837
H         8.92313288086876   10.49917545443478    9.29053194070540
C        11.58228433012603    9.19539217199039   10.48728148128477
H        12.15701884831687    9.42822894830032   11.39374168539261
H        11.53649824656073   10.09503905930304    9.86189574707785
C        12.22455913110455    8.08939161788018    9.69064106249614
C        12.36353547022530    8.21759935086153    8.31693694197733
H        12.05173533863649    9.13330997554661    7.83251289497330
C        12.89542792120137    7.18818349671502    7.55803668197377
H        12.99482076298624    7.30383790068244    6.48904334915947
C        13.28645022161994    6.01208171916430    8.17228022959511
H        13.69355117578108    5.20234733665032    7.58512358437029
C        13.15233801883321    5.86850393330976    9.54227975455802
H        13.45337996883600    4.94781108291796   10.02030352832637
C        12.62774183814659    6.90044209391652   10.31081749808458
C        13.77200047858547    7.72191825782987   12.75988423013280
C        14.73106224701696    8.31668341568719   11.94703432265523
H        14.67684605341346    8.21161362860508   10.87207861156283
C        15.76247833768684    9.04444571476311   12.51526574611093
H        16.50405316974052    9.50542339218965   11.87852790529411
C        15.84399065293943    9.18545135041185   13.89032230797208
H        16.64768774522028    9.76042142913863   14.32676947688811
C        14.89240621333737    8.59098187040904   14.70358659220248
H        14.94731469531848    8.69951705083261   15.77664063385448
C        13.86122112917231    7.86340434773065   14.14182929595958
H        13.10855596609401    7.40726499708391   14.76629031111747
C        12.92002755024432    5.04050950494487   12.44943654446975
C        14.17962285591736    4.71832437610095   12.94444908095552
H        14.91017873978243    5.49590102687712   13.11538623167015
C        14.48879610487148    3.39901425083369   13.22770591207298
H        15.46587216856656    3.15098893633247   13.61687507670502
C        13.55222486601908    2.39894669561243   13.02098978719302
H        13.79773664054652    1.37342480468328   13.25531879628588
C        12.30131570403406    2.71409862470996   12.51356819049779
H        11.56804381737249    1.93813706667760   12.34991697398942
C        11.98750767073243    4.02938390682094   12.22930822950021
H        11.01526959639019    4.28913496811137   11.83607775062793
C        10.98282354249216    6.14493225081525   15.74478405415209
C        12.10540813686041    5.31726823162701   15.71963925985651
H        12.20506694154028    4.57978825463268   14.93583620229964
C        13.08478240796657    5.43433183864176   16.68818629315285
H        13.94732272521935    4.78414552209722   16.65778280374501
C        12.96364794662927    6.39057975530698   17.68400112753062
H        13.73187522453741    6.48776147961140   18.43736669297325
C        11.85722545334552    7.22264766979646   17.70738667565649
H        11.76257049693643    7.97396205019254   18.47778125665269
C        10.86865684778350    7.10246914546181   16.74576983572832
H        10.01284813134533    7.75967743287435   16.76970852201097
C         9.45920913617002    4.20859562246886   14.34267954181125
C         9.78077654363974    3.34868423751025   15.38854763393715
H        10.26521006678218    3.72795527373748   16.27644122538143
C         9.47037004929038    2.00325778501686   15.30276411225545
H         9.72983243783831    1.34310676653983   16.11815453906442
C         8.82463756920565    1.50220006979254   14.18455559088072
H         8.58935932130311    0.44949837829482   14.12168544105495
C         8.47213242804044    2.35791577590692   13.15439873393151
H         7.95424516963277    1.97800057000053   12.28565302291814
C         8.78399791859501    3.70249560733258   13.23611961659585
H         8.50786769040652    4.37119919218329   12.43339316123864
C         8.23249483271638    6.59191202784555   15.17587153239212
C         7.27502792930158    5.71825126120661   15.68151611178829
H         7.41944264069471    4.65007735296674   15.61213438431926
C         6.12681222003401    6.21243427291477   16.27537954065738
H         5.38918655431456    5.52446927895937   16.66337364893747
C         5.92069327186532    7.57779694630789   16.37346728946002
H         5.02193800172683    7.95778608361681   16.83755437604562
C         6.86975304053475    8.45291585106279   15.87156779089117
H         6.71480302185562    9.51991805978220   15.94528858812670
C         8.01665177313623    7.96596242334494   15.27268198955421
H         8.75303525541543    8.65282656504928   14.87624502636426

