131
CSD_code = UBUDIG | q = 0 | S = 0 | Stoichiometry = C48H74B2O4P2Pt | MND = 4
Pt       -0.12412423310133   14.93501381101709    2.67855433140441
P         2.19942394153009   14.32777558438251    3.00519903639530
P        -1.46877291295824   13.03317989420486    3.35297283572293
C        -2.62589907194231   12.84136645163499    1.90405551125563
H        -3.23292389900542   13.75119793269649    1.97574827438932
O        -2.11253798169227   17.10140059393419    3.42460444818588
C         2.89189601731750   15.83381405030195    3.85617399327457
H         2.80867655725532   16.59053042009486    3.06674509167568
C        -0.81106973550644   11.32216664160410    3.79120188442110
H        -0.04977585802926   11.54406491127149    4.55067803948564
C         2.75384550087476   12.81099257537592    3.98199774553698
H         2.15359230073471   12.00406898167505    3.54644660975771
C         2.61095747618181   13.08339877750807    0.61261261395013
H         2.59998239021322   12.13811714223598    1.16150639038996
H         1.57336161910324   13.37701367857673    0.41699772046828
C        -2.56074131931319   13.42366946426921    4.82761091007347
H        -2.86326889533987   12.50124138714937    5.33244827284299
C         3.25482982742436   14.17792211519768    1.46756909840966
H         4.27457610516919   13.88895057118747    1.74262872477669
C        -1.83944343976441   12.97557313520633    0.59634449894277
H        -1.15510505467081   13.83514131676790    0.67774812964275
H        -1.25087977565553   12.07835743922455    0.40072741528245
C        -4.55918151569920   14.66703178280566    5.72633727384601
H        -5.44683427901283   15.23377646809209    5.43625763289347
H        -4.88974767572005   13.79623742798247    6.29976722090821
C         3.32386176032033   15.47610524037007    0.66704524004565
H         2.31026759133097   15.80703120724598    0.44357589084605
H         3.82506519288216   16.25646733397410    1.24266197800581
C        -3.27875916763308   17.64754013099441    3.00989308640954
C         1.95239535202253   16.30642322390374    4.96861901712249
H         0.92206190764144   16.30443067178045    4.58455871220966
H         2.00174240722269   15.64653948845423    5.83447629928111
C        -1.67051529862950   14.24375118140472    5.76738924261384
H        -0.81319074560782   13.63753580047501    6.07293589623987
H        -1.29258862595200   15.11146406815487    5.21069332579887
C        -3.64884557147825   17.05389684244583    1.79455760198372
C        -2.81350159871819   13.19919575015867   -0.55570003843943
H        -3.34528293461218   14.13727435134561   -0.39010092884044
H        -2.26668271644744   13.28542099286592   -1.49667033814186
C         2.32429991813529   12.96124172720559    5.44010249063535
H         2.93955683065609   13.71808313445496    5.92696097441015
H         1.28360090202344   13.29559323802112    5.47429618198921
C        -3.64762280616068   15.52853011372661    6.59188881502965
H        -3.32858357039963   16.40190959178879    6.02048791484538
H        -4.18669278061890   15.87644684443177    7.47568845523425
C        -3.81096117150314   12.04564789207079   -0.64010541397786
H        -4.52312018524842   12.22509709926962   -1.44840380385325
H        -3.27515416763086   11.12064800935334   -0.86977679953772
C         4.33928406632755   15.82639324621274    4.33811406855776
H         4.45452179774995   15.16345155254819    5.19730310046434
H         5.00782608936544   15.48197518506565    3.54566684853986
C         4.21528318744390   12.36773065874167    3.91445404939131
H         4.52060696956313   12.19558779778972    2.88187333556084
H         4.86814226813743   13.12810224525961    4.34173567800665
C        -2.42179255615806   14.72255751830785    7.00393873547698
H        -2.73665572728958   13.86158792282043    7.60068265530237
H        -1.75953927426493   15.33317475560915    7.62087129377958
C        -3.82277954328100   14.20541880627997    4.47033237953161
H        -3.55282215691479   15.08351902534336    3.88633304787812
H        -4.49450628270465   13.58753172137974    3.87122431317573
C        -0.10300698071162   10.73810901141651    2.56931759924343
H        -0.84513328256182   10.44051890396582    1.82782257760366
H         0.53365979975092   11.50330237115281    2.11681368175774
C        -4.56049678541016   11.87715954011830    0.67924812643062
H        -5.25134982974573   11.03304692076728    0.60960663572570
H        -5.14927364988647   12.77576980365539    0.87769559445777
C        -1.74376088460368   10.26739390151169    4.38656520890883
H        -2.24265984583127   10.64111023384676    5.28136425866156
H        -2.50980957329997    9.98139173845528    3.66754850501117
C        -3.57832906511415   11.65190407518939    1.82932795569442
H        -4.12646680700835   11.53321154589117    2.76694629383128
H        -3.02592584996769   10.73061140662220    1.63689389871483
C         3.34367883882114   12.88894804227721   -0.71090350983305
H         4.36290008063449   12.54368495579561   -0.51629536269136
H         2.83884928105132   12.12124766026752   -1.30140822128705
C         0.71179375409216    9.50482347038653    2.94754763909910
H         1.20804209413900    9.09931283899045    2.06262715864714
H         1.48642093761045    9.77590747781491    3.66868413772955
C         3.39419070187081   14.19940506369097   -1.48741666720778
H         2.37745445335324   14.52082563892578   -1.72160291551279
H         3.93175179410587   14.05928225815448   -2.42771416708526
C        -4.81168869908611   17.41008500999370    1.14366871094846
H        -5.09213026579862   16.95207984207659    0.20833707103907
C         2.49654567468201   11.65051449229082    6.20196086657299
H         2.18989874103683   11.78208202258423    7.24234167910595
H         1.86202037763689   10.87628945218410    5.76402158470620
C         2.34308680707137   17.71788466309191    5.39511712317389
H         2.20924711044578   18.39254223443926    4.54851976556808
H         1.68989977635805   18.05744890361789    6.20133761666732
C        -4.06336940642530   18.61297826896259    3.60618392089758
H        -3.77634117752106   19.06827344140650    4.54062873080380
O        -2.71512908428769   16.13626323040467    1.45358591547356
B        -1.74844949262080   16.14081313200252    2.46771318245971
C         4.07646492279924   15.27093135414919   -0.64559763083172
H         4.10979640339959   16.21439106222910   -1.19479455129478
H         5.10656992715915   14.96893647718433   -0.43596566938832
C         4.39838276688308   11.05945132024110    4.68699053834269
H         3.81292205686433   10.27153164405096    4.20611364375863
H         5.44812369989121   10.75952239512254    4.64940664008160
O         0.82986165281277   17.85668960990382    2.29968294118569
O         0.20428152684860   16.87275831513487    0.34678072120090
C         0.66417719131792   18.11673804972534    0.08052676335313
C         1.04795839726024   18.72339807204115    1.28480480460129
C        -0.93466191542960    9.02718597606574    4.77214999889918
H        -0.20876464442348    9.29439235448193    5.54456374745939
H        -1.60310606915235    8.27285749220236    5.19333406046839
B         0.31324863052482   16.68476745096201    1.73415862578351
C        -0.20002025906920    8.45008504393814    3.56621620328271
H        -0.92878688645721    8.11966935232670    2.82228854263240
H         0.38474652274918    7.57882415717248    3.86920279577665
C         4.72891893216905   17.24312781209441    4.76045772918745
H         5.76327230929429   17.25477770238493    5.11350637276979
H         4.66324615927240   17.90835900775582    3.89623366218062
C         3.79788350799802   17.75032710498090    5.85875634183007
H         4.07877077255925   18.76778761507098    6.13930140267923
H         3.90963574055344   17.11939155623385    6.74471377226812
C        -5.23197021374001   18.97066055901038    2.94765815118736
H        -5.87059169935442   19.72427963960038    3.38367587540775
C        -5.59754718180005   18.38359554656781    1.74520401225010
H        -6.51464989523500   18.68930582514619    1.26413316842501
C         3.95330870881770   11.20313950764175    6.13854163750568
H         4.07831758690382   10.25247256799404    6.66146935262865
H         4.58175674714818   11.94367999690171    6.63894787149766
C         1.56759489616323   20.00079721755602    1.31518078521219
H         1.85990861882583   20.46432540017848    2.24426939283947
C         0.79085519914662   18.77332593075300   -1.12619796150545
H         0.49486056995423   18.30502932061167   -2.05127730570578
C         1.69208779635071   20.65927470085724    0.09942060353557
H         2.09403924633920   21.66137899005499    0.08350007375121
C         1.31262040258167   20.05948546455697   -1.09243078079315
H         1.42521288153010   20.60491993114519   -2.01754793697772

