62
CSD_code = UBUFAY | q = 0 | S = 0 | Stoichiometry = C27H24ClCuN6O3 | MND = 4
Cu        7.28940691222567    0.70190868156000    5.67862996253029
Cl        6.50258778866879   -0.40571703473836    7.38534110220901
O         8.15252409042801    6.09913163272458    2.09635666561683
O        11.79094551409815    1.31367480690149    0.83420806943876
O        12.75643010490973    4.64898331114525    5.83904104510556
N         7.08009276878248    4.14333873441582    1.70163085078079
N        11.77637763069763    0.12204975149678    2.75251876201120
N        10.75052025112133    4.74515832529245    6.88038499045262
N         6.56730126452615    1.30032321205770    3.95206663027720
N         9.09515238885218   -0.18841306986300    5.21830723641125
N         7.83824677554717    2.55747140676957    6.60657893500131
C         9.77027479040197    3.02344230101685    2.20621653759965
H         9.37130666670074    2.67767581064173    1.26401988065459
C        10.86730377757572    2.37072408425709    2.75209915555466
C        11.43188578971029    2.83862612012563    3.93147980293758
H        12.31035228797082    2.36820888365900    4.34812846119564
C        10.88303593011072    3.93740488335356    4.58107383429518
C         9.78624987791614    4.58943849474594    4.03031372423925
H         9.37548536247224    5.47317526397039    4.49618744558086
C         9.21729522454769    4.12274151354664    2.85222538331477
C         8.10488558229185    4.89304975229515    2.21538890706304
C         6.14307092739363    4.78147404164050    0.79504957056052
H         5.12152446870790    4.50615366344969    1.05362992321108
H         6.34753889135655    4.49792137730414   -0.23919442032147
H         6.27059947037723    5.85845778294848    0.89449981348217
C         6.85678656680016    2.51030079136483    3.47673289308524
H         7.12397010048945    3.26183796289053    4.20573098134992
C         6.79951707004845    2.83748301145527    2.12482682863168
C         6.38028302752314    1.85266792840348    1.22751598348152
H         6.29029926480721    2.06713318575203    0.17459616380475
C         6.08248033438579    0.59361067452216    1.72676872932942
H         5.75727119320375   -0.19297204871871    1.06447473958895
C         6.18697192217865    0.35589637652326    3.08407006018684
H         5.93926210781738   -0.60419431579346    3.51087171560551
C        11.49092073447552    1.23353788312085    2.00579752778047
C        12.56184825985299   -0.91611199643785    2.10763969958815
H        12.88651023184964   -1.64572714261897    2.84330265112575
H        13.42538312657596   -0.45949593807780    1.62514418485461
H        11.96833495157973   -1.41796526511272    1.33946617397617
C         9.75981396528953    0.05800213994993    4.10015436632207
H         9.18102904075267    0.43190457114944    3.26629670863800
C        11.13002277906306   -0.16060866508508    3.96501375890865
C        11.81347550119172   -0.68923036705769    5.06070707579029
H        12.87614223046822   -0.87356925503143    5.00721686474132
C        11.10423491539868   -0.96413805220054    6.21819020881998
H        11.60152415134597   -1.38032855552693    7.07969294153291
C         9.74557855538406   -0.69710946308231    6.26046875310429
H         9.13903692248556   -0.90077672403033    7.13240629789723
C        11.56007934344759    4.45398807623682    5.81078779889311
C        11.32415889630308    5.50380783931424    7.97749078160879
H        10.99110956487117    5.09453379795695    8.92984864388903
H        11.04688991227538    6.55788368924333    7.91165308186478
H        12.40778480172836    5.42454309061012    7.90117474428798
C         9.07136011198065    3.02106670054435    6.53952717964456
H         9.80529827221657    2.35950318098477    6.10263781880282
C         9.43862163167713    4.28496941603841    7.00754863785025
C         8.45530845109412    5.04036770886378    7.64883148006176
H         8.68691482606156    6.01293800179313    8.05430181844153
C         7.17442265942156    4.52491659507559    7.75013389867967
H         6.39768579946109    5.08408949281648    8.24686910018697
C         6.89958890367636    3.28407733609133    7.19868224275684
H         5.91738533542667    2.83846460735407    7.24454519568699

