33
CSD_code = UBUNOW | q = 0 | S = 0 | Stoichiometry = C10H12ClMoN3O4S2 | MND = 6
Mo        9.04315095500685    3.75917158532931    3.94057641322071
Cl        5.32350974278156   -0.43108993519488   -0.66197226630054
S         9.91258736432093    3.51119355688301    6.20630309218269
S         6.13432552269317    5.08917162175387    4.52062221321880
O         9.44613938458363    5.35061797499911    3.93949232261755
N         9.59280973159977    1.35805540437933    7.68918980500970
H         9.37482092507579    0.38694411163125    7.83641095259445
O         7.54540260824807    3.76061948240674    2.73050210792520
C         7.51260553317967    1.08384793607276    3.72147281626784
H         7.36960399930334    0.04761430201396    4.02935875078051
C         6.56490494524379    3.09730048738381    0.69592130849137
H         6.61405881534925    4.12200249546072    0.35666945355852
C         5.99375852248553    0.79979999788596    0.34840759142751
O         7.25328253262077    4.36821233062514    5.20467188097121
C         6.47445630313030    0.47214595237860    1.59703500243879
H         6.43713575421091   -0.55039338196228    1.94032091952454
C         9.26211029507511    1.92166833481065    6.51111091371930
C         7.02554437164566    1.45731332163859    2.42830824768514
C         6.03694499696206    2.11328723719547   -0.11095742989967
H         5.65891650112627    2.35271633949416   -1.09232894453135
N         8.12454252976690    1.86544282725314    4.55161036157591
N         8.48088742816559    1.27090370607389    5.71030653966149
C         7.07327607777950    2.79647858230877    1.96723312553606
O        10.17910036261422    2.83383433019802    3.19863463560426
C         5.33924004784169    5.95048300710698    5.94080177392429
H         4.85836224696816    5.20015800930722    6.55934454529836
H         4.60081095719617    6.65330258761008    5.57458753508156
H         6.10791221680437    6.45586813339608    6.51442476029902
C         6.85374588546251    6.59359641469408    3.78721492336259
H         7.50293413147945    7.07128688836624    4.51422793728097
H         6.04581698348854    7.24993572765690    3.48043159597801
H         7.45019178334146    6.28995832824248    2.92832372938488
H        10.31981054443861    1.79405230262060    8.22834338610511

