43
CSD_code = UBUNIQ | q = 0 | S = 0 | Stoichiometry = C16H16ClMoN3O4S2 | MND = 6
Mo        2.66949886438528    6.39356009353470   10.81283508644257
S         3.33139445083685    6.22989831856275   13.65506108262682
S         0.39308798078010    5.96394615000251   11.64323887347626
O         4.44688654271408    5.91750789674512   10.47090801543676
O         2.20330423045770    6.95772567014904    9.34831567624821
O         3.10482826248499    5.19567503522228   12.57285505896678
O         2.81759624902711    7.57545115903028   11.98511848057197
N         1.15192651322581    3.74320031350427   10.31280593082386
N         2.29837716452285    4.40276278241419   10.06631877071530
C         0.24000058649367    4.33659729777056   11.01496731992067
C        -0.67667353673851    1.51015884633704   10.33110802474170
H         0.33235513183490    1.74065135748006   10.03775693259589
C         4.92637017315815    3.75482095726286    7.59572845876509
H         4.41956744446395    2.96432781707478    7.06372103587288
C         4.98349656004826    5.38239832986695    9.40151200054420
C         4.30828692453042    4.34590650752796    8.70695159567811
C        -1.42626525519797    2.48054027548967   10.99016740894752
C         6.16398218653085    4.18914200959703    7.17430848962742
C        -2.73451999079377    2.18582343926346   11.37673292585588
H        -3.31936692768965    2.93623544831270   11.88925305096937
C         6.24971679468280    5.78789318419171    8.95571259276464
H         6.75076152240543    6.58050643554548    9.49237702548229
C        -3.28096565662614    0.94674600397410   11.10613372415406
H        -4.29460652773291    0.73197180077690   11.40978997039207
C         3.03328823982890    3.86757580116708    9.14167790731660
H         2.63887797769462    2.97665241238519    8.65206626731153
Cl        6.90398074742485    3.45900927093364    5.79536442599369
C         6.83143592107438    5.20848332620797    7.84931323138411
H         7.79940924656312    5.53671304212412    7.50462589122594
C        -1.23465152872876    0.27298028509118   10.06474246965795
H        -0.64612307553119   -0.47391400275523    9.55296572415268
C        -2.53338271247753   -0.01643889981200   10.44807486634633
H        -2.96069868063422   -0.98473857758801   10.23712099438635
C         5.04445296108410    6.78801268149092   13.39204665577988
H         5.62176070423843    5.93372632735136   13.05077636781822
H         5.43522533822148    7.17939490062237   14.32468742415569
H         5.01905289222034    7.56523190379770   12.63251999475609
C         3.78980101621253    5.06774219839830   15.02644452063339
H         2.90141519942728    4.49339747390420   15.26378940068433
H         4.09353740669107    5.64126071056106   15.89389994252452
H         4.58000637322641    4.39824835256334   14.71084479410749
N        -0.93663125251915    3.74515282664809   11.30490495937669
H        -1.57199646183339    4.34696283726676   11.81415663077189

