76
CSD_code = UBURUG | q = 0 | S = 0 | Stoichiometry = C39H26CdN4O6 | MND = 6
C        18.39991109529421   20.14206056796947    5.82748991355093
C        19.53888393077755   19.26636192334575    5.16560821107659
C        20.30631250974518   18.43477150159697    5.96579923660095
H        20.11861448284496   18.41173180319911    7.02868970126900
C        21.28543685875336   17.64499498459124    5.39604539592841
H        21.89874576124425   17.01280385896930    6.02291201286506
C        21.50056393371410   17.68225965425499    4.01661001514269
C        20.74055895165179   18.54801289527775    3.22817443414970
H        20.92874824002616   18.57911372514728    2.16471975091048
C        19.75865731391360   19.33405280799415    3.79903165250567
H        19.16074379443332   20.00649967020185    3.20291724934408
C        22.53501634130377   16.84794614460872    3.37181099776880
C        22.88943807234973   15.58359349603310    4.08455935626621
C        21.90273106203047   14.76684141900967    4.63354649840830
H        20.86348994525281   15.04493572527469    4.53780988272466
C        22.25417943039679   13.60365780719489    5.28771784054568
H        21.50324247814640   12.95828116060048    5.71849139683310
C        23.59477127448789   13.24971571809097    5.41545452369331
C        24.57940986277014   14.05209514984274    4.84639901796908
H        25.61380287181348   13.75687540751880    4.94139041268473
C        24.22615506897205   15.20405022157655    4.17263311300907
H        24.97710608053752   15.83471768913277    3.72028808710282
C        23.96628722365783   12.03036491803446    6.18765295119568
C        26.41997061764101    9.15572806049526    5.17433512645411
H        27.18508745684171    9.68703806695660    5.72723318225944
C        26.61765265518589    8.80781494168754    3.83616408574205
H        27.53971661102693    9.07182735802692    3.34254843129826
C        25.62323253816346    8.13556495483967    3.16817591286458
H        25.73548489470481    7.85216816842479    2.13208097385333
C        24.43123437841445    7.81493792390801    3.84886646556375
C        23.35911947021221    7.12314107344166    3.22999722458065
H        23.46859051911765    6.82856586036869    2.19705721146092
C        22.21769124657962    6.84218320928111    3.91667257475586
H        21.40193714055053    6.31938454553702    3.44024436511407
C        22.06620901911415    7.23596629078480    5.27008226939350
C        20.89486982210416    6.98058966829197    6.01131361494043
H        20.07188459938051    6.46304095806588    5.54054515909127
C        20.82067591553967    7.40076261759322    7.31601161730285
H        19.93653985838990    7.22504288208260    7.90854565670061
C        21.91261168635275    8.07247334025649    7.87421746392008
H        21.88528366418996    8.41469342819935    8.90180604289365
C        23.11488440117395    7.92470627726685    5.92836696237657
C        24.32493422035534    8.21825824808305    5.20246601862666
C        26.50663449710643    7.83535690693046    9.01220821223767
H        26.66804880461536    7.53717225264205    7.98384574946287
C        27.22420652140223    7.24156274983886   10.05047346164315
H        27.95380007203119    6.47727240185964    9.83258656041285
C        26.98886736882228    7.64856038821832   11.34274643118591
H        27.52729891493564    7.21762189663469   12.17366579340367
C        26.02629267402708    8.65057613374658   11.58418188104519
C        25.73143057233707    9.12862376946731   12.88581675369405
H        26.26603094156407    8.70176768280091   13.72116533758391
C        24.80346017639818   10.10672545556387   13.08065890876057
H        24.58789243067454   10.47262463253887   14.07329883181641
C        24.10070935774836   10.66959132761027   11.98716421071577
C        23.13580934182267   11.68668508991513   12.14149795646681
H        22.91934613704238   12.06474770614892   13.13004867361585
C        22.49232446204728   12.17796877637948   11.03452280772001
H        21.75157112265216   12.95737527891416   11.11851868390544
C        22.81104923231170   11.65370624092126    9.77560919522583
H        22.31693809547370   12.00944722986326    8.87982355809418
C        24.35905329522362   10.21280569520052   10.67084849327936
C        25.34793742427351    9.18650936763456   10.46261746778504
Cd       24.51569455799418    9.99752290774787    7.64917100664469
N        23.71117703037929   10.70697315567099    9.60599268425565
N        25.59944007952838    8.77700450965262    9.21058796195429
N        23.02118758917922    8.32155884745460    7.20615976229245
N        25.31330877884152    8.86903756236842    5.83669803283648
O        25.18388209268401   11.79815175072660    6.41733307144093
O        23.06195154853023   11.27588486297583    6.61617917210386
O        18.11825494093780   21.13731442972121    5.17353094779163
O        17.99249028681797   19.66987965840158    6.88246119031055
O        23.07674836262314   17.15058934550262    2.32710733183455
O        26.45778164639033   11.66168362333053    8.83327616537265
H        26.12307759401028   12.09098750607206    8.02805701247418
H        27.41068675050146   11.61068473458795    8.72206468167171

