93
CSD_code = UBUSOZ | q = 0 | S = 0 | Stoichiometry = C42H40MoO8P2 | MND = 6
Mo        5.78492342104944   12.05101909170808    4.23890232713956
P         5.48697904063426   11.04335890481107    2.11124906552132
P         6.10028152115875   13.00155009853259    6.39522002303210
O         3.54466488841971   13.61924730527403    1.73116929479000
O         0.99366352142221   16.01138475933203    2.51301330034901
O         2.71623383998920   17.74956219972082    4.05341329315087
O         4.46457500208875   16.59974061334459    6.08661071522892
O         8.74792405427924   11.15929647733541    4.17571336743806
O         2.78298705542791   12.73151166546772    4.56235671112086
O         5.33258598790737    9.30681102736840    5.59657805465997
O         6.39335082339493   14.65024988699176    2.66854384124249
C         5.00490933816201   12.06438753989143    0.65230621145138
C         3.57901971384778   12.57935896254815    0.78343479374157
C         2.25237665064507   14.16533071926123    1.85732823571793
C         2.28444683764464   15.45663753340603    2.67381969265458
C         0.60185884697012   17.17122956254739    3.11358070458839
C        -0.74024742569773   17.48146238967804    2.90748966616847
C        -1.31099796850562   18.62626739960585    3.42717092303744
C        -0.53385249291007   19.49303154748645    4.17002319259307
C         0.80269851127955   19.20478262629891    4.38501170089830
C         1.39103976728714   18.05462827158980    3.87148530824376
C         3.45229182570955   18.46663126598914    5.01520933556106
C         4.74640129805034   17.69943837178423    5.25637437672342
C         5.51164214453528   15.66203318801590    6.13111423116915
C         5.05715418439925   14.43384078107450    6.90594120617436
C         7.02093222332883   10.26834154769580    1.52737958144056
C         7.90765973549025   10.88469128715895    0.65230980452987
C         9.11851510934094   10.28218399353241    0.35491518253959
C         9.45653875501837    9.07069968059267    0.93243561392674
C         8.58401041058628    8.45992702065466    1.82026164943462
C         7.37690957620789    9.05861577403096    2.12126169646935
C         4.31895848495851    9.66331206278892    1.89432760681555
C         4.41344598605469    8.81978637047901    0.78908621198005
C         3.51045396787388    7.78702549815717    0.62457663016558
C         2.50253647258990    7.58962269878272    1.55604474071530
C         2.39928540613560    8.42845379397692    2.65250947464820
C         3.30490746287341    9.46198276162317    2.82164181423141
C         7.72289767882945   13.66111124120044    6.89159682005144
C         8.05012172796400   13.82327425874980    8.23570278687522
C         9.27030420869675   14.36619913417807    8.59130367071558
C        10.16895539432642   14.75896030574882    7.61148233864412
C         9.84335764895293   14.61149961401492    6.27370103380352
C         8.62353836987054   14.06501563438947    5.91446359456690
C         5.78445403852526   11.80196606039275    7.71669824783925
C         4.54772046804566   11.68841357454093    8.34158284470002
C         4.32461658226573   10.66989124832232    9.25233608724583
C         5.32534294978695    9.75634798896992    9.53636876770782
C         6.55318240346448    9.85226201865210    8.89939003899310
C         6.77960353909745   10.86490074652008    7.98813519639271
C         7.66534132521593   11.52791514851650    4.17689931223101
C         3.88918958004066   12.50487727090389    4.38855318051570
C         5.46889600602125   10.33114340606049    5.10646135224081
C         6.14715076279398   13.71790938919877    3.28311112240169
H         5.09773608817067   11.45961100123800   -0.25630782197700
H         5.67773518940804   12.92402130902539    0.59496023756349
H         3.22708842996561   12.96013360744656   -0.19169367323788
H         2.90051301353927   11.76304501933263    1.08684553799955
H         1.57262239090741   13.44187920560893    2.33077766008867
H         1.84843092987191   14.40618452710946    0.86139413141333
H         2.50413278938864   15.24747394505221    3.72483938923434
H         3.05864693501410   16.12073593567383    2.27624359828259
H        -1.32156192913298   16.78521838993589    2.32381588967319
H        -2.35449816801302   18.83618533230342    3.25091157210042
H        -0.95622995717815   20.39589272206880    4.58349355167837
H         1.39865286384946   19.89816266004619    4.95689808630637
H         2.90048906341690   18.53169592381084    5.96058459257710
H         3.68408474915780   19.47778439126784    4.65184603518248
H         5.14333051424051   17.35553048046638    4.29064503693372
H         5.49236858389299   18.35649313732736    5.73041284604360
H         6.40601832854909   16.10828866254237    6.59631912974118
H         5.78079267647520   15.36214744785580    5.10385587373867
H         5.11844068127983   14.60116941582034    7.98568339763617
H         4.01946185025949   14.22161441755834    6.63063711739997
H         7.66063304390342   11.83867788385345    0.20786861785633
H         9.80348593332222   10.76495422552254   -0.32730670800252
H        10.40335501944363    8.60637853511255    0.69944532760692
H         8.85123218979344    7.52079966419926    2.28233015251296
H         6.69359073214415    8.59660322273041    2.82510091205826
H         5.20753112203232    8.96737234645008    0.06856697644579
H         3.59248332750038    7.13105453146748   -0.22996189948070
H         1.80033907668046    6.77924171506795    1.42695934906921
H         1.61502300375861    8.27560554262485    3.37939492361670
H         3.23165456717148   10.11861360443293    3.67932015904374
H         7.34924879463257   13.51174672163650    8.99906137495652
H         9.52359808162789   14.48353872997894    9.63503636842326
H        11.12316105555322   15.17975167265499    7.89250330316656
H        10.54158726198616   14.91993194777541    5.50940749836642
H         8.36185019636152   13.94705840157122    4.86984030987866
H         3.75769075013446   12.39013389014385    8.11203418657131
H         3.36325093664642   10.58633417925557    9.73850644678274
H         5.14623919233336    8.96270352310708   10.24663923672788
H         7.32970152395301    9.13136198427276    9.10966845287619
H         7.73005250620509   10.94164842757549    7.47212684909751

