82
CSD_code = UBUSEP | q = 0 | S = 0 | Stoichiometry = C36H36MoO7P2 | MND = 6
Mo       -0.49306969822780    0.62290052916584    4.13592695716130
P        -1.54205305942629    2.60991248876071    3.36480337390901
P         0.47775541928942   -1.44404359588023    4.77213795490845
O        -2.16267482222286    4.94247666055255    6.56471770572193
O        -0.47018110043040    2.97833561586986    8.32067104743424
O         0.22312012733059    0.01230484792808    7.72906913982626
O        -2.44994643219745    0.55982272102638    6.53405326374807
O        -2.59136971079781   -0.97178142853709    2.51157126418248
O         1.58558581172199    2.17748896434948    5.82964461953530
O         1.22080217464590    0.58451896505378    1.55919467790405
C        -2.44613035260657    3.66091709062728    4.56897775173209
C        -1.46607952274435    4.14203520023394    5.62692802189964
C        -1.49042862471068    5.09988129599419    7.78752382300288
C        -1.52677924718549    3.84497392205796    8.66810697172802
C        -0.41927051867356    1.83494424975497    9.13727593633389
C         0.71612467330883    0.92355729675074    8.68313584926590
C         1.11215335373067   -1.03627946464289    7.43906865630551
C         0.39310695642093   -2.01823709941344    6.52150043701923
C         2.24589561660484   -1.76937560953298    4.46194985880179
C         3.11841157223170   -0.71903050664244    4.20926269623839
C         4.46504291845670   -0.96318766327060    3.99864052409954
C         4.94813533559925   -2.25977863641202    4.03535884934982
C         4.08257975135972   -3.31425816278113    4.28292836761517
C         2.73940120516033   -3.07230811161955    4.49738535963617
C        -0.25572349506210   -2.84026544938916    3.87414701863151
C        -1.24232107229731   -3.66715084914523    4.39741521415052
C        -1.83116256466991   -4.63377719893308    3.59952356337220
C        -1.44853859340337   -4.77697624528799    2.27733678784309
C        -0.47633431106058   -3.94419069386186    1.74469432231705
C         0.11147486202501   -2.97817532574764    2.53653775743544
C        -0.57125573823174    3.89591579464139    2.51401259678692
C         0.81275741022921    3.91553995148882    2.62288604264068
C        -1.21327985682165    4.88115672604657    1.76669242132446
C        -0.47662852209416    5.86666712565765    1.13820003403230
C         0.90514164412391    5.88046393927029    1.25111694324635
C         1.54851254334997    4.90537374769591    1.99394822583094
C        -2.79862159469332    2.27861771004413    2.09854087648936
C        -2.32646284647564    1.91282279722572    0.83900988364577
C        -3.20657097668215    1.54053224139686   -0.15724223075111
C        -4.56941265271557    1.51852467905714    0.09734518696795
C        -5.04380759036685    1.86658840310654    1.34990679197796
C        -4.16439120138171    2.24244968105062    2.35146835275971
C        -1.69326023538706    0.58694519575009    5.68116643887686
C        -1.82073544091741   -0.38042423960520    3.11363714830990
C         0.81472344317999    1.61071536022271    5.20293909146049
C         0.62070151994736    0.61930062401788    2.53400870473752
H        -3.21787664238123    3.05382525094686    5.05265523255583
H        -2.91565855465899    4.51432264938297    4.06807941638149
H        -1.01226473616870    3.27765341954490    6.12691430564199
H        -0.65967378280966    4.73478946509771    5.16159335559513
H        -2.01329905983555    5.91109831195075    8.29970172142583
H        -0.44282117030775    5.38524733463620    7.62365069310618
H        -1.42876814616322    4.13864138965596    9.72565064657763
H        -2.49542741015482    3.33954596289672    8.53837598023614
H        -1.36438785201800    1.27659513578194    9.07491594048167
H        -0.25905678635492    2.13841495481285   10.18458837971879
H         1.52474666994682    1.53448403545475    8.26016412501741
H         1.10824998038192    0.36800612920317    9.54979352531817
H         1.40974017096057   -1.53695742740754    8.37769322938625
H         2.02973435399710   -0.65121533526452    6.96057220811760
H         0.83334215143188   -3.01713208249669    6.60405561054024
H        -0.65679644965841   -2.04877765698157    6.82508201289468
H         2.73501631116428    0.29297715676136    4.17316581636619
H         5.13707854640049   -0.14053918169545    3.80224425348862
H         5.99763515965302   -2.45136625201861    3.86700866903001
H         4.45776598950733   -4.32719966770382    4.30585331582653
H         2.06158714691297   -3.89683905047245    4.67745000783500
H        -1.56015596637590   -3.55565772618467    5.42438041691742
H        -2.59716866091777   -5.27453588360927    4.01226216456832
H        -1.91313589654116   -5.53052193907517    1.65866497935798
H        -0.18361613393353   -4.04614028723384    0.70983408674566
H         0.86519013186166   -2.31549865663895    2.12663905571222
H         1.31001069589697    3.14815295214480    3.20310886037222
H        -2.29114519027755    4.86268839823128    1.67060152815323
H        -0.97865540562233    6.62620712950141    0.55649005011027
H         1.47897661360013    6.65075515561353    0.75712657253038
H         2.62522840901175    4.91439054252206    2.08165335093126
H        -1.25830786997598    1.92464056330821    0.65395018559815
H        -2.83312774269174    1.26057147590224   -1.13151811358633
H        -5.25960659906456    1.22281164442675   -0.67899985411348
H        -6.10510613369123    1.84103800431339    1.55161487109482
H        -4.54598269833120    2.50188054060823    3.32865912063552

