96
CSD_code = UBUSIT | q = 0 | S = 0 | Stoichiometry = C40H44MoO9P2 | MND = 6
Mo        7.85336279170682    6.48840849891791    3.28249008079685
P         5.64428073420024    7.30510056140086    3.64989165776904
P        10.15171392261466    5.95326273621628    2.92508969800298
O         2.92060474072321    5.05551975373270    1.74276904803520
O         4.90652604147409    2.68544873053773    1.17398299217929
O         6.65317557741532    0.20059579108319    1.35555730009744
O         9.27417219935272    0.61976347662507    2.95125384978711
O        11.43616303845162    2.86072672424454    2.78468769149001
O         7.17573008317487    5.51645669359442    0.42328395097135
O         7.11950402488497    3.62486468496402    4.21110692538049
O         8.64254757996020    7.58746915845990    6.06902029473580
O         8.47966211159811    9.30003279020179    2.14492004502453
C         4.30177254071070    6.82624438951926    2.49425857093211
C         4.01759497010886    5.33443792929051    2.59218554381320
C         2.74529940820427    3.69462611442860    1.43613244634056
C         3.79214215448678    3.15667873255403    0.45414198939925
C         5.96088857374373    2.25213879053819    0.34671959192575
C         7.00662746399975    1.56101558871789    1.21309132865537
C         7.16067051710612   -0.41902754190553    2.50556506876544
C         8.68556057818309   -0.58164633779383    2.50950332801076
C        10.66864948225085    0.54012442364957    3.12134452072129
C        11.16511532868511    1.85759204062295    3.72588193533154
C        10.31555802858883    3.33048005675101    2.06410314318710
C        10.61571200723864    4.75394923253565    1.60314700685438
C         5.59492733004994    9.11765060027095    3.56691289220613
C         6.09134421824731    9.81369305404376    4.66749338971977
C         6.19227114521769   11.19061864423021    4.63719067732061
C         5.80748538203816   11.88769215102861    3.50245094312151
C         5.32569517976339   11.20164781400899    2.40117531049030
C         5.22237584334965    9.82135829817068    2.42769780814926
C         4.80312058416761    7.04788745634604    5.24486211789689
C         5.30347330979432    6.13796188340144    6.16618856720311
C         4.65458976696406    5.93804346109568    7.37292767654933
C         3.50372606595727    6.64891441454595    7.66658202974929
C         3.00235013703625    7.56420924421284    6.75353077050237
C         3.64728009313427    7.76483018071289    5.54853030032540
C        11.07945297612984    7.43762755009130    2.45085776076795
C        11.34030643953614    7.77125961265323    1.12690142718341
C        11.93819576770061    8.98219792826383    0.82257934944701
C        12.27009023772572    9.86964379736532    1.83163714737554
C        11.99665664500457    9.54974503694063    3.15260285498636
C        11.39905914159416    8.34350046857576    3.46039095050738
C        11.17626363309628    5.34551691951746    4.29752723651645
C        12.56576737961371    5.39754399288417    4.22011316160769
C        13.33488122840864    4.91568414614422    5.26057312849920
C        12.72687025963086    4.37901681105909    6.38548129129804
C        11.34651912915229    4.32509299869140    6.46736706993974
C        10.57241992832412    4.80715043296091    5.42536193509671
C         7.40425399189765    4.69187349487181    3.90788290530000
C         8.33826667763923    7.15322802225020    5.05576082355272
C         8.25782890478193    8.26448271412837    2.57168293448053
C         7.40958052890103    5.87316597420277    1.48562894894263
H         4.62717432532773    7.05827136727802    1.47494826953420
H         3.38717800654869    7.38720920594242    2.71508146082077
H         4.90201505719922    4.75705618067979    2.29249655938877
H         3.76527855282733    5.05715411607220    3.63020173474303
H         1.75351642535453    3.63275649636759    0.98271204516819
H         2.77206609358041    3.08134677047699    2.34617261008582
H         3.35962795044771    2.33753886616406   -0.14113263778305
H         4.09015850779790    3.96320788295665   -0.23337418470427
H         6.40638234955292    3.11326799707604   -0.17389471307016
H         5.59070576998123    1.53787562194487   -0.40219650431247
H         7.03723856462835    2.05228494975197    2.19179146022204
H         7.99532980001541    1.64994030423020    0.74417466452138
H         6.69314878889432   -1.40605323547539    2.52801781657428
H         6.87699676619756    0.14487326244143    3.40531901779559
H         9.03631872361128   -0.83777051733821    1.49836701323049
H         8.96284697211240   -1.40233726963318    3.18957020043777
H        11.17128298740452    0.35478784255438    2.15986480673787
H        10.91390074402250   -0.28936282002248    3.80303843672180
H        10.41154888091191    2.20241079100080    4.44836295373090
H        12.11365456688248    1.69423062077111    4.24196746986178
H         9.41698797702481    3.31338691592750    2.69911903247773
H        10.12652792037496    2.67945868941399    1.19856353252225
H        11.68299070029883    4.83117299466624    1.37447289516975
H        10.02638410211356    4.99437160968910    0.71341950750250
H         6.39499732439746    9.26121361586774    5.54901669425224
H         6.57615955105003   11.72253195372256    5.49555743800057
H         5.89010023345088   12.96419301911695    3.47515334680222
H         5.03384698819240   11.74304657367759    1.51283846871626
H         4.85763896936537    9.29579662633382    1.55668487521441
H         6.20749484807445    5.58941380663934    5.93326133679001
H         5.04903207789171    5.22840733443790    8.08551053535987
H         2.99822356295048    6.49471309090170    8.60850804088068
H         2.10759703687150    8.12356762607008    6.98522144868574
H         3.26493793059983    8.48962441221222    4.84179306008835
H        11.06827463960876    7.09104589372542    0.33164090996740
H        12.13957587835739    9.23653274722926   -0.20811634359820
H        12.73312796830580   10.81475885252536    1.58927378294071
H        12.24408190436468   10.24622261332510    3.94050141633509
H        11.17140491208498    8.08961642707558    4.48938653122848
H        13.03751702808690    5.82085511054032    3.34358446328906
H        14.41269344665431    4.95766445293188    5.19826592533748
H        13.33132825590362    4.00497815487617    7.19898378751769
H        10.87181994028864    3.90793053327916    7.34386913251076
H         9.49080114597112    4.76840839146509    5.48358228529531

