47
CSD_code = UBUYOI | q = 1 | S = 0 | Stoichiometry = C21H17ClN7Ni(1+) | MND = 4
Ni        5.13594563917678   13.78287487422864   11.28816280360704
Cl        4.79614937960514   14.15134103801521   13.23605083221657
N         4.20075241048430   12.06033208682736   11.31388256444692
N         4.81378124083583   12.17495433442992    9.11876770851790
N         5.92254997033739   13.92202578891076    8.43344994728240
N         6.11274563992483   15.36008407842452   10.97208370895585
N         6.38591866360961   16.18243046108896   11.93334503557263
N         7.09094473423716   17.16502729950876   11.45730821922136
C         3.60698668559195   11.41338328205962   12.31610792107426
H         3.62337184437946   11.90170577385623   13.28366040857686
C         3.00198321701349   10.18064708040633   12.11564281918495
H         2.52511142730189    9.66251339268141   12.92963138120388
C         3.03803330387675    9.65136953684122   10.83353098729513
H         2.59364827710861    8.69914224405318   10.58202500295785
N         3.62749889816159   10.29147803878977    9.83434909005012
C         4.17894906814243   11.45089027366815   10.10444662530260
C         5.03166846048219   11.97239637643746    7.76525344675793
C         4.68608684728291   10.94759904963542    6.90280888455400
H         4.13829906519155   10.08981643139017    7.25473019874311
C         5.07947872641100   11.08796637805620    5.58328216867099
H         4.83169091905916   10.31344085825312    4.87529978209720
C         5.78811578009967   12.20478399994155    5.14353279051417
H         6.07318697789162   12.27021084408278    4.10560245896677
C         6.13582348406213   13.23275181715947    6.00229446025890
H         6.68321779019728   14.09314396776177    5.65280856227020
C         5.74683534147658   13.10201410136037    7.32545812395043
C         5.36188027211370   13.36253768736256    9.50379587521448
C         6.59605102095160   15.19579682100732    8.44918441334744
H         6.07813346855526   15.88321774780131    7.76638936753286
H         7.61873191228252   15.06467948524646    8.07184485758438
C         6.66055702669768   15.82457884277660    9.81099848334778
C         7.29450085875250   17.00568796390012   10.13575686683243
H         7.84287984748839   17.70356863328039    9.53913146417467
C         7.48892379000264   18.27232999495181   12.29100578984090
H         8.56433434609344   18.43310012600656   12.18577995764577
H         7.25895255055394   17.98314668040721   13.31914237389813
C         6.71940011988971   19.51066643764444   11.89233578933071
C         5.34157208540303   19.54162610208659   12.07209065410288
H         4.84047386323415   18.69219728360302   12.51393010405351
C         4.61897146169183   20.65930749150877   11.69568342000808
H         3.55008777566455   20.68091039881611   11.84112701884596
C         5.26778468463916   21.75001158802426   11.13937689148234
H         4.70407234088520   22.62330656839078   10.85038982909516
C         6.63992740076036   21.72119781239342   10.95880271028300
H         7.14870924300736   22.57084330956896   10.53053253230446
C         7.36545707654078   20.60108716663411   11.32880006685597
H         8.43712506284997   20.58397845072216   11.19208560195668

