73
CSD_code = UBUZOI | q = 0 | S = 0 | Stoichiometry = C21H40CoN5O6 | MND = 6
O        10.00675243739130    5.36091486940064    7.37957379947122
O         8.87844528551901    5.28053269982312    5.44178085096855
C        12.19831247727985    4.54394937016145    7.81031781904942
H        11.89154088215409    4.03195505207006    8.71849873720645
H        12.48246103444796    5.56147339383969    8.06489580549159
H        13.05027298385162    4.02710815093708    7.37834718757509
C        11.05350989202537    4.57714648844202    6.81452842835918
H        10.67239348620489    3.57133767366433    6.60001403163539
H        11.36434415030832    5.03617774608333    5.86958903996376
C         8.98719855367349    5.69783300131212    6.57443476242433
C         8.03987633268102    6.60687642997033    7.27780701808757
H         8.10658493030988    6.37969122052418    8.34664002974363
C         6.61748477474338    6.37927347539682    6.78776309856940
H         6.28799742243293    5.38772053829628    7.10504483717552
H         6.57415787182518    6.40814678067937    5.70226579448284
H         5.92131739684245    7.10645145193544    7.19616654187623
Co        8.76074076348330    8.51760437868954    7.11438618810494
O        11.22872035047596    7.62343143450495    5.88164632302792
H        11.37710724473171    7.67059246854065    6.90939737279750
O         6.46444476746185    9.43957425812930    5.81877032457262
O         6.30509283502732    9.38736884853391    8.33324923454813
H         6.20066103616238    9.45673135837865    7.29617045668839
O        11.19639108278637    7.94434408745468    8.38866722854188
N         9.93813722975126    8.02426940756115    5.72391654731549
N         7.61388738862245    8.87243386934736    5.67397200404593
N         7.58156862373959    8.96036899759024    8.49925648978456
N         9.94806018420052    8.21625177089638    8.54844256392779
N         9.51782303936847   10.52519922737182    6.95325727361590
H        10.25654751634151   10.66740305691959    7.64199723852162
H         9.98581084297149   10.52352597335010    6.04803786061496
C        10.14564661717509    7.55534444978161    3.32832965380758
H         9.88089839329072    6.50861068325134    3.17535839697407
H        11.21953534220697    7.61431681407454    3.49101397096845
H         9.86631525959723    8.12315620815463    2.44559989374713
C         7.30024812071167    8.71599998335246    3.23905443340674
H         7.76093698383276    9.45758983831556    2.58668074846933
H         6.29662919402934    9.04813151547631    3.49608567279138
H         7.24225551810061    7.77007535546823    2.70442705121708
C         7.26004486162407    9.06272482560207   10.93526034684534
H         7.12326687061959    8.13220792795536   11.48508864989588
H         6.28554984515607    9.46514449509605   10.67013909343130
H         7.78156813785186    9.76442121878954   11.58433839768836
C        10.19624023534184    8.22097106229450   11.00070221820582
H        10.30081676347977    9.16947908942418   11.52732808611920
H        11.18571161966288    7.84237258265708   10.75398358738500
H         9.69570029639736    7.51526760162052   11.66090518265186
C         9.42328930128118    8.03400281271650    4.53871971267388
C         8.08006639468687    8.54769257883587    4.50349010454787
C         8.05006014351696    8.80680208869102    9.69468720012361
C         9.42660506688274    8.39195605561027    9.72975133218527
C         8.63088460725451   12.25164138624293    8.42241456644263
H         9.56996104775814   12.77031317373331    8.61233370605317
H         8.52904061260128   11.43985054334625    9.13841788293475
H         7.80907768630583   12.94092139854416    8.58557175628861
C         8.60038240106360   11.68710705598417    7.00591680204979
H         7.58634802711232   11.33422843110649    6.78983815145356
C         8.97398094550793   12.72180364576444    5.92425441631118
H        10.04172573176112   12.96147669125728    6.01947377936299
C         8.17450227842188   14.01883724685432    6.07862729523146
H         7.10884554111796   13.78539418207515    6.03219559182777
H         8.38121905810425   14.47646562745552    7.04621773905108
C         8.52492414077374   15.02027089659099    4.98063677751164
H         9.57994071087444   15.29354918609052    5.06305186061854
H         7.93466574606223   15.92863565334523    5.11558597048041
C         8.26417105107587   14.42797886193488    3.60128051877900
H         7.20005073089400   14.20699469033083    3.49549289767502
H         8.53764456168766   15.14680968150357    2.82658720736644
C         9.06670463102145   13.14396399133638    3.43156025910483
H         8.86521527072935   12.70298614806486    2.45315973459879
H        10.13425799807725   13.37417348113200    3.47981887441524
C         8.71043248980684   12.14440361287534    4.52747817966711
H         9.28473069956399   11.22808047943922    4.36522033729147
H         7.65276625016027   11.88355926802130    4.45208707415375

