73
CSD_code = UCABAD | q = 0 | S = 0 | Stoichiometry = C21H40CoN5O6 | MND = 6
Co        2.78020704715059   11.50752294597507    9.49785915481534
O         3.97681593140065   14.69129443824488    9.52090335867693
O         2.67585820370405   14.66473268124986    7.69323919589162
O         5.27785211123897   12.20154745327578   10.60242197139251
O         0.45014035085862   10.57030184385345   10.90014703716213
H         0.25873817192699   10.52913340680338    9.86754505464757
O         0.38965546572475   10.57949096221764    8.38998543641723
O         5.15850150340555   12.35946904142189    8.08096290100804
H         5.36527794937560   12.37965687730638    9.09861287117020
N         4.05402469941542   11.88611895351225   10.84694089657932
N         1.71034157868451   11.06522111612163   10.97072685415193
N         1.53771752113651   11.11552915788493    8.15134335502992
N         3.85786452030526   11.96206921697680    8.02086301827981
N         3.57439769731866    9.51037554434475    9.44793798010667
H         4.32365468855017    9.47299364626839    8.75695642928120
H         4.03445990666983    9.40846922333105   10.35121019852362
C         6.16200067435738   15.60472893616553    9.73090138740201
H         6.50634606947923   14.61637421126501   10.02311148764265
H         5.90100971678171   16.15991281713011   10.62793845170057
H         6.95763835521121   16.12561575137151    9.20630904113292
C         4.94986420309291   15.46740506589434    8.82835660817601
H         4.51739740310561   16.44349411893119    8.57702684857662
H         5.20813690616594   14.95524351409975    7.89486022569624
C         2.89495938915354   14.30153108392130    8.82884040543060
C         2.03504675171327   13.40926624514440    9.65411764342451
H         2.19976858146985   13.67607203835071   10.70281181206655
C         0.56816414850816   13.59888813505093    9.29768882240682
H         0.41868685828548   13.52842168012063    8.22366832997479
H         0.25472168563876   14.59724609870958    9.60978496593661
H        -0.07232769729968   12.87819176606330    9.79818297848366
C         4.45684085323148   11.94537836790118   13.27855584585673
H         4.03549483388763   12.73934341293980   13.89331040845729
H         5.45337744857808   12.23960623406516   12.95630852931420
H         4.52552366935304   11.04270016111019   13.88462955938598
C         1.56901185656719   10.97279839437087   13.42342374946234
H         0.53025702824055   10.71530268674770   13.23501238413857
H         1.61599104989964   11.84836360292975   14.06750401923276
H         2.05250260101934   10.14527584592737   13.94107116421372
C         1.04318835064254   11.25209076106148    5.74501897396999
H         0.93644197434380   12.20217771938434    5.22519861972199
H         0.06560185434482   10.90969024947535    6.07763848346096
H         1.45647645359793   10.52096381792517    5.05052090498155
C         3.90470691894633   12.35458931514471    5.60117260622042
H         4.98727017097847   12.32366082396421    5.70061518288423
H         3.60549215791672   13.38641772260051    5.41437332211899
H         3.58610868596729   11.73919330738285    4.76460128318839
C         3.61525089780025   11.71771616906235   12.06299541733210
C         2.25618081992554   11.25042430225378   12.12771752305565
C         1.91924620764426   11.41976137182363    6.94491683836840
C         3.26606434308479   11.91897840932495    6.87341361885125
C         2.81203328363189    7.91360856419836    7.77563711011106
H         3.77497103926465    7.43844027768079    7.59156917938800
H         2.72252654393004    8.78755258127075    7.13444454741836
H         2.02048499145487    7.22361489508844    7.50272390520497
C         2.68659600350596    8.34285510599489    9.23398095394128
H         1.65280272883784    8.65652884605785    9.41222987360576
C         3.01902264973047    7.21873455754949   10.23587697540415
H         4.09193077162881    6.99369378882904   10.16764796955420
C         2.23893842611929    5.93674298792541    9.93069995981127
H         2.49157167809098    5.56982418195316    8.93585099838177
H         1.17004990183001    6.15890662597768    9.95065699584768
C         2.55152647907111    4.84215218803541   10.94830614956380
H         1.97506792514739    3.94696571699108   10.70761682418565
H         3.61128526278627    4.58223316138169   10.88625762255112
C         2.22871624236931    5.30592950803091   12.36331974307853
H         1.15911666864645    5.51040804617613   12.44431536670194
H         2.47702062939590    4.52164370676723   13.08085898666643
C         3.01141768706566    6.57385217351541   12.68149198723177
H         4.08218046325444    6.35500699335548   12.65732115577663
H         2.76552033037524    6.92289928803565   13.68666147665417
C         2.69106775827691    7.66655749291474   11.66611609076575
H         3.25059440292480    8.56690431536110   11.93334425213031
H         1.62870956416353    7.91339435050357   11.72131872062311

