79
CSD_code = UCACUZ | q = 1 | S = 0 | Stoichiometry = C28H42MnN4O4(1+) | MND = 6
Mn        4.48353799027892    2.54883287873092    9.35736175936463
O         4.57869104914870    0.89085302865817   10.07509034233109
O         4.72964390424980   -1.72382323997327    9.91734393821503
N         2.73882632046597    3.05090432497060   10.82345323621405
N         5.55549356764929    3.19216475673374   10.86803463819582
C         5.40560712853390    4.58283901583430   11.24835098273572
H         5.32009302944306    5.19364374605644   10.34455174672624
H         6.27059468063323    4.92006584112779   11.83402113258292
C         5.49491691316721    0.30969804074234   10.78252276421738
C         5.58311806255119   -1.11964585179122   10.78534232120430
C         7.28511736248693    0.35928901365531   12.44619952823352
H         7.93724339906020    0.92760178726648   13.09171405768190
C         4.13910514553639    4.75573647849968   12.09748482308995
H         4.07627842968704    5.79871866495974   12.41251063978893
H         4.22250812207559    4.14464447726440   12.99892235164265
C         6.38563223736501    1.04566091951203   11.61126856599609
C         1.45113006234534    2.94605910849943   10.12892185917673
H         1.33676611132254    1.94328657267578    9.72228911938326
H         1.39601503789652    3.66611976489870    9.31516305051973
H         0.62028335203861    3.14063809887789   10.81939043941245
C         2.85105017970631    4.43026200659782   11.34118507335622
H         2.00113511816007    4.62596463321973   12.01416706866375
H         2.77206851434815    5.11235261866598   10.49147427390798
C         2.69851289953182    2.10098550163826   11.94302518097609
H         3.64174517271042    2.09014645374181   12.48516560715567
H         2.51812226893031    1.09798492380956   11.55884618868769
H         1.89260491542981    2.36231673051380   12.64070430462447
C         6.28767947553933    2.46834151700752   11.65297934354304
H         6.85439462409460    2.95512954650352   12.45083366195164
C         6.50016961410713   -1.75212641567584   11.59571855580549
H         6.57680259561769   -2.82716481124581   11.60440895879871
C         7.34119620620309   -1.00946971225387   12.43090689448236
H         8.03975276755664   -1.53214116059539   13.06434873192116
C         4.73796176170879   -3.13857381469700    9.81697714849665
H         4.48223747547386   -3.58251987117276   10.78735107224386
H         5.73706015874355   -3.48542544957706    9.52187147526528
C         3.71091681582358   -3.53297879756198    8.76828261531814
H         3.67845782714725   -4.61425613181434    8.67743240786417
H         3.97294069504533   -3.10415866763300    7.80467869306599
H         2.72714817376240   -3.17185596307386    9.05478717023565
O         4.38845149022649    4.20678768912980    8.63962526939921
O         4.23770119549607    6.82139522984932    8.79739209287362
N         6.22824365440268    2.04683372523229    7.89123225637993
N         3.41162864163935    1.90554974762114    7.84661671880900
C         3.56149131263545    0.51487645060380    7.46629340282314
H         3.64704287461673   -0.09594211335164    8.37008101407218
H         2.69648951078449    0.17765266594783    6.88064150197781
C         3.47227990362212    4.78798538378300    7.93216532692080
C         3.38419427597917    6.21733554849963    7.92934598899888
C         1.68214806582450    4.73852875074364    6.26843404791010
H         1.03001367313424    4.17026931896773    5.62288081565772
C         4.82797276704285    0.34205485346318    6.61711669713726
H         4.89080410796102   -0.70090299631225    6.30201642353484
H         4.74453758297957    0.95321252732546    5.71572547589092
C         2.58155214439075    4.05208016757984    7.10339132900338
C         7.51594858658154    2.15164436594836    8.58575496663503
H         7.63030337042928    3.15438938401300    8.99245775600594
H         7.57108249461947    1.43152634249198    9.39946169454106
H         8.34679239264110    1.95712708089392    7.89526523477276
C         6.11603302036860    0.66750382325108    7.37341905497697
H         6.96594232058457    0.47184419076244    6.70041621768066
H         6.19502807753752   -0.01463304985070    8.22309216539898
C         6.26856830483999    2.99680625921843    6.77170338998504
H         5.32534264377969    3.00767031361185    6.22955193690588
H         6.44895155002495    3.99978834065896    7.15593406743662
H         7.07448477640277    2.73551548833329    6.07401887661856
C         2.67947184139784    2.62939603571079    7.06166100196339
H         2.11270817931720    2.14262092196645    6.26383467235614
C         2.46723714286818    6.84989659467013    7.11893263983884
H         2.39070013504482    7.92494257691041    7.11023702115321
C         1.62618590459234    6.10729410276489    6.28371550057219
H         0.92771392389000    6.63001595375585    5.65022198227473
C         4.22950597460603    8.23613283093119    8.89790513360630
H         4.48535838990164    8.68016410324122    7.92760434344871
H         3.23041796407075    8.58305172051650    9.19296529684133
C         5.25650896368292    8.63028897219510    9.94673740677737
H         5.28906485647604    9.71154710562920   10.03777017830744
H         4.99437395614256    8.20133152388568   10.91025085177708
H         6.24026486388852    8.26911750580695    9.66024852566037

