33
CSD_code = UCAHUE | q = 0 | S = 0 | Stoichiometry = C16H12ClNOPdS | MND = 4
Pd        3.04248564663734    9.30928109927290    8.73062792534707
S         1.58632681690830    7.94023667623782    9.91960412911347
Cl        1.62869716953424    9.81849601781130    7.10541916764690
O         4.61313554014849   10.37977319287443    7.99549623354870
N         4.32907028480066    8.87116786889847   10.15182760602179
C         5.50191186522878    9.51920099984467   10.00383026101240
C         4.11712307251102    8.04567409970617   11.15988130746026
C         1.81123995543799    6.78802864725560    8.55858208483896
C         5.60673583339693   10.32799054882706    8.82676700905768
C         3.07479320813242    6.38850605408647    8.12357523716731
H         3.98300322320757    6.68833926174529    8.64678350572842
C         6.55751181607540    9.37356468984000   10.94143525611119
C         2.79590050337965    7.33034539803815   11.19199561125999
H         2.29811384227356    7.48042699684053   12.15247105580255
H         2.91434921199795    6.25705616813046   11.02874678790666
C         0.66826509753346    6.36566515344418    7.89660272312247
H        -0.29790173753988    6.70245442813004    8.23784845264072
C         6.30679990219025    8.51116222064726   12.03399128804361
H         7.07352922663344    8.37268582506490   12.78181788561368
C         5.10972163330695    7.85036143812211   12.13842480507312
H         4.91272000642807    7.17931792222482   12.96019624626133
C         3.17179120887500    5.55652091233266    7.01996472363579
H         4.14695119662273    5.24629032409964    6.67615943538898
C         6.81846489859973   11.00222280137722    8.64682120413221
H         6.94283864578984   11.62276500769885    7.77378707096687
C         7.74135820630948   10.08210022967766   10.70342854401541
H         8.56124248592998    9.99983972697064   11.39954952451662
C         2.03246415921388    5.13977636060827    6.34946045997455
H         2.12237840779596    4.50544956125506    5.48125510935316
C         7.84372535273111   10.87310780865081    9.57688376153341
H         8.76224562084029   11.41494972777887    9.40225598276209
C         0.78389771830980    5.54449596649166    6.78789499040717
H        -0.10519001919046    5.22684686482758    6.26591461533336

