59
CSD_code = UCAMAM | q = 0 | S = 0 | Stoichiometry = C25H24Cl2N5O2Re | MND = 6
Re        3.28123331454364   -0.57629165963181    2.15691180335897
Cl        4.18726937136561   -2.21250894190308    0.74611808615081
Cl        3.17633306971778    0.83268278242030    0.32950441463785
O         3.40228519825120   -2.22833753079048    4.55933959403810
O         1.93561878207289    1.78481426670316    3.62489254576026
N         3.36322419704646   -1.59534401647268    3.58085934352570
N         1.25881525156656   -1.45692450873915    1.44468296904420
N         1.86067537320406   -4.13957113763282    1.95135695227763
H         2.65206745477541   -3.54487080349157    1.70963416728885
N         5.50409052757445    0.09718739245522    2.30861115122457
N         4.67869493596743    2.78963407777025    2.50198756035306
H         4.49894803719613    2.26870219902467    1.65115106764913
C         2.46989808711721    0.91011004809419    3.12789276224236
C         0.47610571948864   -2.21729392892732    2.36733461482647
C        -0.57327831359007   -1.60778964733453    3.03806941493304
H        -0.79499573003540   -0.57027380003645    2.83210964518453
C        -1.32477751264454   -2.31385167078388    3.95731841780476
H        -2.14552561041816   -1.83573741391562    4.46720740963422
C        -1.00239068683576   -3.63601987993790    4.22381991718518
H        -1.56725320596100   -4.19040606539112    4.95755339123920
C         0.04740867528482   -4.24922492732528    3.57369285770703
H         0.31492320098722   -5.26409125480565    3.82071308423821
C         0.80750865669200   -3.56301597996396    2.62112896898864
C         2.12433414220787   -5.49727542608877    1.82109954619316
C         3.45270262704909   -5.91287362033895    1.73002498876629
H         4.23976793911121   -5.17644957020208    1.79846333419592
C         3.75676012948149   -7.24699245556491    1.54757968580240
H         4.78987231547157   -7.55571044102658    1.48359363788847
C         2.74469119488099   -8.18796099857387    1.44827022904155
H         2.98346474068505   -9.23178798173672    1.31148782019727
C         1.42377200430543   -7.77717100456690    1.50927678477119
H         0.62793229323502   -8.50080053037113    1.40798146256365
C         1.10875787052114   -6.44317032447049    1.68616136757980
H         0.07598335480304   -6.12842448972350    1.69597266802862
C         6.02411266655553    0.96142598302652    3.31991152440618
C         6.92800651000066    0.45782638361369    4.24321619895547
H         7.21279515687442   -0.58310247457259    4.18397496935801
C         7.46307107611593    1.26811866064210    5.22603634832226
H         8.16325892528782    0.86434612602560    5.93932386008805
C         7.10594983916266    2.60694730418060    5.26591699182621
H         7.54415823872218    3.26039913557443    6.00462672042684
C         6.19709364364631    3.11789976586891    4.36360901300891
H         5.94799263499529    4.16659173466131    4.38721819786777
C         5.60396393550274    2.30413297600163    3.39224380739581
C         3.87797569820596    3.92007007181812    2.64155129028927
C         3.42805206313572    4.55396460045079    1.48361374693012
H         3.72380175025404    4.16582159993202    0.51969577110919
C         2.60508404654695    5.65943351367065    1.56599646767321
H         2.26837139100850    6.14332280285630    0.66094261138523
C         2.21240543080310    6.14714166614614    2.80172092444089
H         1.57337718242111    7.01476292388491    2.86553261923173
C         2.63022367742914    5.50185230670014    3.95321530592637
H         2.30464124061202    5.85727531158980    4.91978796317051
C         3.45088457721339    4.39203063543289    3.88126309022214
H         3.73516626683584    3.87110846050404    4.78230993681189
H         5.59451597782717    0.50867184422893    1.37397522228459
H         0.71087739248932   -0.68528349162868    1.05886088768936
H         6.02232274159626   -0.78594328652047    2.30480507949218
H         1.58748053166650   -2.04707531090698    0.67134978736870

