60
CSD_code = UCAMET | q = 0 | S = 0 | Stoichiometry = C25H26BrMnN2O3S2 | MND = 6
C        10.53328482945480    7.05049752858394    6.67714114653212
O        10.30126091005064    8.15563460610557    6.90224336925891
C        12.27037412224036    5.65272698361648    5.28215264398238
O        13.17888346462857    5.84609230226404    4.60202855591870
C        11.92168850450103    5.18973554676457    7.76987608824853
O        12.60214008451408    5.10485520294276    8.69341574172550
Mn       10.87261138653794    5.33075921354545    6.34317171286567
Br        9.25737691403709    4.65226429431564    4.97400088414157
S        11.30599575845334    2.43419212906565    7.06412122333067
S         9.29779652905621    4.11508789345045    8.54583129414901
N         8.15594021953994    1.09540577994001    8.45758017887044
C        10.00354760899197    2.66573141641886    8.09021636375482
C         9.40764581910846    1.45936665982074    8.65970855267898
C         7.85906263326701   -0.14875795916008    9.15522698951883
H         7.54473869666241   -0.91168714122197    8.43735744083374
H         7.04476955054629    0.00713804836944    9.86735258625584
C         9.19263404482096   -0.48784262633170    9.84135867242535
H         9.11295663708417   -0.51560634201307   10.93182433295843
H         9.61118184655976   -1.43988463833052    9.50507491917262
N        10.05972149798648    0.61100608702023    9.43466415579480
C         7.24868474563822    1.75395679246437    7.57721340661749
C         7.39815853369296    1.58364086012789    6.20021314809729
C         6.56119338438953    2.29888283262110    5.35938996463028
H         6.68887106269802    2.20497119540748    4.29221175549742
C         5.59702948208778    3.16435883636816    5.85660950346132
C         5.45386509967354    3.28648117740400    7.23100936679032
H         4.70813348757581    3.95743928222030    7.63172051182887
C         6.27149731043304    2.59371288720786    8.11029578781747
C         8.45280961086291    0.69062547024452    5.62267778143658
H         9.37860356055955    1.25096343017235    5.48752499175479
H         8.14407015913138    0.33193419101444    4.64461850347600
H         8.66552087336785   -0.16557372998121    6.26080517832367
C         4.75985820798156    3.96643338633473    4.91348213463173
H         5.39268946387120    4.69154454435695    4.40343912265012
H         3.97212941829503    4.49899845280027    5.43942453923212
H         4.31250797527039    3.32556846875753    4.15617296510153
C         6.11908504297763    2.76452278452942    9.59168600079719
H         7.09010229883393    2.85147995946493   10.07564478004335
H         5.58567993873063    1.91680552104183   10.02472195610781
H         5.54969481753805    3.66409133174246    9.80728289409392
C        11.39573060479274    0.77784932188961    9.89910802312456
C        12.42428783213343    0.06309724986575    9.28729725580426
C        13.72134801157347    0.27239643874538    9.73154050307152
H        14.52805173153171   -0.26627737542204    9.25659052494306
C        14.00494561628804    1.17050937911893   10.74917049606356
C        12.95613781983037    1.86129771780865   11.34222258024714
H        13.16687991962745    2.56679026967948   12.13226491330181
C        11.64463669370134    1.68034216047381   10.93482304875938
C        12.14654417011360   -0.89204727176893    8.16712324460101
H        11.42147675568360   -0.47281622523837    7.47228850675883
H        11.75952962597717   -1.83710674215315    8.55078655657897
H        13.06080856086706   -1.10201826400487    7.61955130813338
C        15.41058942327011    1.41264808299042   11.20037122946966
H        16.10318385428259    0.73745297546133   10.70546484711286
H        15.49455576141443    1.27725331009798   12.27741381774114
H        15.70127250843018    2.43688630177644   10.97080670148159
C        10.53514002043291    2.45298661577249   11.58049663879201
H        10.23976542035687    3.29039591942922   10.94721452130449
H        10.86308707845327    2.85771637306443   12.53394793828527
H         9.65553305956373    1.83339110304158   11.74912619961785

