37
CSD_code = UCANUJ | q = 0 | S = 0 | Stoichiometry = C14H14N4NiO2S2 | MND = 4
Ni       -2.34323562148790    3.99414044730298    5.74721291058913
S        -0.38179067888952    3.01282658888497    6.05601730855971
O         0.00406716048684    3.40480150250734   10.65809190234027
H        -0.72065931211622    3.70938165452188   10.06779705793249
N        -2.37046157471377    4.25829821455350    7.64704780383041
H        -2.47025775678934    5.26984789062172    7.83014179943105
H        -3.22767751033342    3.82001339944693    8.02088274442046
N        -1.27432136248847    3.78749435567940    8.42400844447119
C         0.94231367845666    2.81644298727905    9.90186150565083
C         0.83991148481894    2.69157239045005    8.50119744589508
C         1.87536886824195    2.06107413589937    7.80653086899628
H         1.79518533999789    1.96677637248878    6.73401167482408
C         2.98040554765006    1.56481412205231    8.46056432918810
H         3.76663024883994    1.08173095360923    7.90163445590772
C         3.07510521605375    1.68984722830638    9.84036835031243
H         3.93795583621438    1.30325205468742   10.36152184506173
C         2.06862170741183    2.30786127236215   10.54967455807627
H         2.12149581754628    2.41622247537308   11.62150984676216
C        -0.31999327127325    3.20466342692754    7.78096544089848
S        -4.30456330890805    4.97550387147988    5.43837259271989
O        -4.69018280276394    4.58321320385535    0.83633027934545
H        -3.96543788307930    4.27867223139580    1.42662997456092
N        -2.31554430003753    3.72985000790853    3.84741157438240
H        -2.21558988872393    2.71831723544063    3.66428738461332
H        -1.45837297381993    4.16829854876527    3.47364930619079
N        -3.41176546807298    4.20049259883863    3.07046762894585
C        -5.62842436588590    5.17157704384211    1.59255728747085
C        -5.52601708174753    5.29643345875082    2.99321213206353
C        -6.56146611857931    5.92689362415525    3.68791814981843
H        -6.48126522983405    6.02112272503136    4.76044770939260
C        -7.66658060525593    6.42304144826743    3.03391858141749
H        -8.45283461930151    6.90605882850014    3.59286559565043
C        -7.76131751523594    6.29798157618337    1.65411551573319
H        -8.62419072722186    6.68454947757636    1.13297801621472
C        -6.75480211193945    5.68004850038983    0.94477961051998
H        -6.80770076075405    5.57167173824388   -0.12705123451014
C        -4.36620805646603    4.78321240842056    3.71346960232219

