50
CSD_code = UCAPAP | q = 0 | S = 0 | Stoichiometry = C14H26B9Rh | MND = 8
Rh        6.06574225396483   -4.54719345678303   -3.11962605172202
C         8.46458162442701   -5.21564120851436   -5.00135742727112
C         7.48918374490335   -4.09367050993959   -4.72269162909375
C         7.84461145818082   -3.39427397703348   -3.58209139452329
C         9.06188048872435   -4.00150673746624   -2.93308096679078
C         8.74103436858790   -4.57609399507996   -1.55322327755454
C         7.37255300903455   -5.25398935487611   -1.69233443320110
C         7.69967461726242   -6.57251177743177   -2.42233270144865
C         9.18068645203398   -6.41268012774949   -2.76447137374126
C         9.38695554871273   -5.26608766472464   -3.77214077667558
C         9.69872685395842   -5.76975101647740   -1.47430914333836
C         4.10425691915051   -4.30576991870110   -4.39212525563648
C         3.98449482672384   -5.39640271358677   -3.29638881430215
B         4.67074134894575   -2.90507162958306   -3.67886118651520
B         2.94131909175134   -3.06415033269872   -4.12874426956040
B         2.49645764354538   -4.73431686964895   -3.92032104683419
B         4.36995931586272   -4.94967383632526   -1.72168515580611
B         4.82782369908532   -3.25659547413719   -1.83554008388366
B         3.43470262509088   -2.39989234878098   -2.54546229500627
B         2.04320523531585   -3.53390658884508   -2.69557654354676
B         2.67669623677853   -5.14437655024571   -2.22940847215509
B         3.15853615174075   -3.70332554051719   -1.33687104926754
C         4.46386810110825   -4.74691535061794   -5.75173515983745
C         4.66301817832625   -3.94847271253340   -6.79408550163188
H         9.03982605065849   -4.95196419079969   -5.89464720049348
H         7.98872705812406   -6.17586064355638   -5.21493542602114
H         6.95869692591770   -3.66133413212289   -5.56413510295054
H         7.62421413270608   -2.34782822754908   -3.41187739397687
H         9.88927878801280   -3.28746848586450   -2.90617708295124
H         8.79670387898861   -3.85310499643912   -0.74269030601100
H         6.93850501812910   -5.42801646922247   -0.70687207990580
H         7.54944801050740   -7.43616358144506   -1.76980587747449
H         7.07939443751595   -6.74508520808954   -3.31698299287273
H         9.66486228346307   -7.34226826500351   -3.06707337584578
H        10.43266198497234   -5.27376362797252   -4.08899657137722
H        10.74673145519090   -5.47755642336668   -1.52711693190435
H         9.53933306151839   -6.39205033676521   -0.59551049819084
H         4.17774064315368   -6.41896676045067   -3.63261057293187
H         5.32239905091679   -2.14298861345482   -4.29862534194680
H         2.58260315607173   -2.45246999111610   -5.06544631642267
H         1.88779391004846   -5.37476731315002   -4.69522964488007
H         4.68260517104726   -5.79484558758608   -0.95571431726227
H         5.55166094906017   -2.64037303161863   -1.13719113463126
H         3.27264522531725   -1.26163263025383   -2.29173903216348
H         0.92278472187660   -3.21331367158152   -2.53963176981513
H         2.09424586170695   -6.07814520833704   -1.81329408108689
H         2.83338251630459   -3.48001936352533   -0.22853009993597
H         4.54941337457011   -5.82175145228940   -5.89776898485821
H         4.91621139143052   -4.33861869057902   -7.76489296034436
H         4.57932114957508   -2.87807340557006   -6.71264089440189

