51
CSD_code = UCATIB | q = 0 | S = 0 | Stoichiometry = C20H22N2O2S4Zn | MND = 6
Zn        0.80999614757085    2.84152355455123    2.58793851831282
S        -1.35992128836268    3.89321153560912    3.43590030221540
S         0.83228220954470    5.33854820754224    2.10233527869620
S         0.42136376777494    1.86119356084793    0.28704911366031
S         3.01180978066520    1.88735421707258    1.69013541579155
N         1.71291699205258    3.09862816305411    4.55238014448129
N         0.27013714302734    1.00156252837630    3.60525042303680
C         2.42382941313742    4.11274344098582    4.98622333169673
H         2.63872930458929    4.88807300803883    4.26366329696681
C         2.88483104470203    4.20601780352785    6.30264151825218
H         3.46573760024034    5.06197284606502    6.60733675366727
C         2.58227575664732    3.19803339813222    7.18504196410695
H         2.91505758295645    3.23407250512636    8.21251117655124
C         1.82569301010847    2.10050574539638    6.74108741190846
C         1.41215816693012    2.09736545034632    5.39029604227969
C         0.64135343980010    0.99443175608116    4.89254986137079
C         0.29640458091824   -0.06002765413753    5.76680947854126
C        -0.47011547743286   -1.11364209314584    5.24073475494503
H        -0.75444119725437   -1.93608753899588    5.88144117653969
C        -0.84579364884621   -1.07616044668013    3.92030032765913
H        -1.43741076340619   -1.86472301998762    3.48326635286078
C        -0.44893257662407    0.00989692827596    3.13444054455097
H        -0.72341044761418    0.07422216007981    2.09041972019262
C         1.46537970182544    1.01542279371957    7.59041183838286
H         1.79415497822745    1.04329502284174    8.61891330621783
C         0.72828750965188   -0.02015699217135    7.12346821930168
H         0.45139558560771   -0.83997426044784    7.76994777090650
C        -0.72102462070146    5.29491469867965    2.76022856839518
O        -1.50886907374676    6.34275135010700    2.79686972655855
C        -1.08594787288300    7.60151573606296    2.25353220624911
H        -0.45359346319657    7.40288175738268    1.37799022797057
C        -2.35079304091603    8.34106023015923    1.84219226490188
H        -2.91018789327903    7.75239481199744    1.12013386510765
H        -2.08962076291297    9.29612929392385    1.39607792641373
H        -2.97894518618851    8.51054194834270    2.71279993166559
C        -0.28434636450533    8.36871791720977    3.29937685012980
H         0.60828140549062    7.80946889117903    3.56890417672615
H        -0.88940351467565    8.52286430952939    4.18984108714784
H         0.01465010723784    9.33218421509679    2.89740480538634
C         2.07079707665173    1.51847244003952    0.34278370982466
O         2.54186317377922    0.92004780099275   -0.72541990677241
C         3.93834913412282    0.61044986392164   -0.83834848531295
H         4.30453956352733    0.31466685684305    0.15425140331583
C         4.04304988192772   -0.55038411265617   -1.81719583192194
H         3.64463918387837   -0.25302841426288   -2.78373730606762
H         3.47276262282448   -1.40154361749852   -1.45392487494205
H         5.08316014283884   -0.84173183487697   -1.93191291984782
C         4.69898262434816    1.84114100056275   -1.31961669192769
H         4.58913013970326    2.65157976223231   -0.60293081468303
H         4.30884011905719    2.16465556151297   -2.28194669466667
H         5.75421830118050    1.60454691341012   -1.42034726673649

