46
CSD_code = UCATOH | q = 0 | S = 0 | Stoichiometry = C21H21Cl2PRu | MND = 9
Ru        5.23051251105453   13.97162288571860    8.91718034275922
P         4.87758630021817   13.90904643650621    6.66401456491740
Cl        6.84274378876527   12.38445169657433    8.26172264247482
Cl        6.79563793490910   15.65950130082882    8.43355283497772
C         4.61849169159948   12.56417345245872   10.58128776370413
C         5.30301371770558   13.64102203412125   11.19602980142904
C         4.87466093257534   14.95436601019082   10.95953002549991
C         3.75431571538429   15.20789785037539   10.13470485100598
C         3.07656146413564   14.12860779280676    9.53338860473357
C         3.48601977570994   12.79490910754594    9.78515305945717
C         4.12689848677045   12.32845827829783    6.19316767558154
C         2.76213275659155   12.13322956243930    6.39647475787375
C         2.18596991774114   10.90589028875566    6.12859348125018
C         2.96923924503660    9.85870380370087    5.66929167833342
C         4.33027096916249   10.04127240678733    5.48895944043737
C         4.91227251360555   11.26814112284963    5.75393271021467
C         6.30598931935685   14.17570161813479    5.52839285603494
C         5.91550101814827   14.05032000803394    4.09577945933754
C         6.40481432091773   13.14210064888829    3.27065842109788
C         3.71262134821380   15.18023658559157    6.08374428418054
C         2.82528450436122   14.98250392034496    5.03061762524401
C         1.99756579974730   16.01488538553383    4.62559294012964
C         2.05363756487938   17.24581640009360    5.25957996542810
C         2.95016660225377   17.45158699811233    6.29604592742915
C         3.77806211111727   16.42285262018842    6.70730811281544
H         4.93181094923704   11.54605881426656   10.78659057119883
H         6.13120398970444   13.44574108840274   11.86644714718700
H         5.37618492085515   15.78359858075818   11.44744672548018
H         3.38786995277396   16.21992908669433   10.01086956660219
H         2.17503114851530   14.31764747142404    8.95913196211541
H         2.91643787214823   11.96239127256212    9.38896008985911
H         2.15421021154818   12.95182628691131    6.75963653375415
H         1.12561122164247   10.76329617265790    6.28156461346021
H         2.51798892992544    8.89980550166215    5.46087121102310
H         4.94292001020408    9.22099329527658    5.14589711571866
H         5.97638576116639   11.40146431078323    5.64525899041390
H         6.64511087465105   15.19353749863039    5.76110555244750
H         7.09638677247756   13.47549781003777    5.81232179859258
H         5.19295871008791   14.77518891184827    3.74189718488858
H         7.13507614846614   12.41744373030867    3.59032612663585
H         6.10550964871527   13.09285232750354    2.23755053691043
H         2.78621947216153   14.02530487684909    4.52974365454684
H         1.30860724627987   15.85888788099363    3.80815887953658
H         1.40348890526813   18.04652751199671    4.93918119513523
H         3.00467191845050   18.41514551394409    6.78091848224251
H         4.49894502576302   16.57136384160339    7.50301823590365

