55
CSD_code = UCAWIE | q = 0 | S = 0 | Stoichiometry = C24H27Cl2PRu | MND = 9
Ru        2.72132320049003    0.85174982211773   -0.04699911940044
P         4.92364777719811    0.58142157546999   -0.55342395443161
Cl        2.34494665723234   -0.42628811122568   -1.99359033208280
Cl        3.27338705190567   -1.15020063151700    1.09011292005320
C         1.00342118283983    2.83385988354957   -2.27463502233025
C         1.38025913943004    2.49881026305714   -0.86326179617003
C         2.48681347807024    3.08710442167364   -0.22584801622093
C         2.78260259117980    2.79300915437793    1.13317700296960
C         1.98677801774330    1.89591507288924    1.86507204630178
C         2.19995770522520    1.66727299039737    3.34236533171661
C         3.65221161328915    1.33666790770109    3.68127752149519
C         1.72056640503261    2.90522497876531    4.10923382046276
C         0.86117856160258    1.30853142802066    1.21634218258724
C         0.56132272221293    1.60597675402810   -0.11134972163580
C         5.47959632612670   -1.06179489865961   -1.07577738282285
C         6.72393073351323   -1.49864480442121   -0.95750004298531
C         5.98837380039801    1.05966497851850    0.83519668027682
C         6.36190865150688    0.12599273511845    1.79711772383804
C         7.09777157523765    0.52642131157051    2.89836483768741
C         7.45286462584372    1.85621277602148    3.05505650279239
C         7.06157036504377    2.79347462844147    2.11162133207457
C         6.32678813462049    2.39956262737388    1.00883068708841
C         5.55031867553625    1.58574710814077   -1.94157896890379
C         6.90116010176854    1.89512431542401   -2.06592398707407
C         7.34312188669206    2.62575014111113   -3.15320695196104
C         6.44698348837397    3.04169881300793   -4.12564147491167
C         5.10536682886871    2.71660041267241   -4.01510788243722
C         4.65736564883206    1.98896473255996   -2.92678620008598
H        -0.00446654656018    3.24830716569068   -2.30586992667251
H         1.01241429407822    1.92733404259615   -2.88279074122277
H         1.69566978101078    3.55354424979641   -2.70635851135943
H         3.07815969146055    3.82967012761228   -0.75274432673488
H         3.59505055505546    3.31772621353679    1.62229869486690
H         1.58512865941125    0.81204062711009    3.64422985048548
H         3.73756035593356    1.08984268090197    4.73656037560100
H         4.31478708774581    2.17390915335494    3.47297796378359
H         3.97839459051028    0.47825993538984    3.09762331614538
H         1.80866495326573    2.73486932710644    5.17931666162672
H         0.67944193642899    3.12442714628092    3.87890403690767
H         2.32200816961668    3.77386338212817    3.84812002994698
H         0.20602470278698    0.65733413136988    1.78569089350685
H        -0.32337960696904    1.18585485119991   -0.57891317095785
H         4.70117921890879   -1.65699120665017   -1.54087945160765
H         7.50116679840886   -0.91431866335904   -0.49049197084188
H         7.00964007941672   -2.47571333048543   -1.31250953077733
H         6.05695597832846   -0.90371695488105    1.68115471979386
H         7.38999994279425   -0.20116975074045    3.64072615472465
H         8.02796268642718    2.16575444367043    3.91527767711700
H         7.32888260547470    3.83306936646863    2.23819931503407
H         6.01871102015871    3.12700444551241    0.26875686929830
H         7.60131902118730    1.56868718868246   -1.31000019864097
H         8.39158136518432    2.86962926005736   -3.24508445406782
H         6.79810049221694    3.61263538757149   -4.97264858972956
H         4.40860208857903    3.02641920357040   -4.78025447916806
H         3.61760313333511    1.70419719033284   -2.83882894295228

