49
CSD_code = UCAXAX | q = 0 | S = 0 | Stoichiometry = C22H23Cl2PRu | MND = 9
Ru        2.44047570681129    4.77389667072473    1.87173540582684
P         2.74372000890514    3.01957015996249    3.29110655139482
Cl        4.11714290423395    3.63152890197790    0.67851358975343
Cl        4.14572032079941    5.82146506095450    3.11658543764529
C         1.18428498670057    4.79106085917283   -0.04090048566202
C         0.38703019735863    4.30080162360407    1.00633088620396
C         0.23860344607322    5.04626036163225    2.20551884429725
C         0.84219724109150    6.30900086851393    2.33437227754641
C         1.61364814122817    6.82366927513125    1.26116698058026
C         1.78926751947531    6.07590514787104    0.09578556756146
C         1.37517623314451    4.00892804437899   -1.30208035400156
C         4.45713394112848    2.56584261824943    3.80901407665554
C         4.45987904468951    1.34224484068822    4.65769851621907
C         4.60153079888154    1.36420166539028    5.97163631714150
C         1.93820606811508    3.19394591169283    4.90882707192007
C         1.50191014168814    2.10148515136425    5.65132342948276
C         0.95664817768400    2.29861294390619    6.90728524578443
C         0.85286772044253    3.57712698739442    7.43131070994389
C         1.30151762350658    4.66527554498135    6.70021364636288
C         1.84376260288797    4.47520331252188    5.44219359222106
C         2.02470806645111    1.52471609140638    2.55782667007203
C         2.78887092920294    0.70323785879921    1.73434949226486
C         2.20148571289117   -0.37463114545860    1.09603170225654
C         0.85147246924850   -0.63555277339782    1.26410157782617
C         0.08146703181661    0.19261885103480    2.06554235466363
C         0.66228799844742    1.27267593697045    2.70371373682755
H        -0.14444890362282    3.36322349071911    0.88406570028214
H        -0.41695873567174    4.67936336875935    2.98886569440355
H         0.66601430881912    6.91537569734808    3.21489698802177
H         2.04271740202111    7.81686815446822    1.34009112905728
H         2.35399192984026    6.48403093860697   -0.73528076740929
H         0.67792481607800    3.17572594398081   -1.35662321955324
H         2.39145459808673    3.60598319050852   -1.32264317378100
H         1.24806545316291    4.64713057364618   -2.17524583670304
H         5.04849109759816    2.44584510044731    2.89607640899166
H         4.82646669241951    3.44108679013610    4.35461228362537
H         4.32270309777379    0.40198108799158    4.13875041037002
H         4.73719083148353    2.28855201596609    6.50847055056675
H         4.59800812221253    0.46321967855280    6.56106091105225
H         1.58795716650587    1.10358118943268    5.24626147429292
H         0.61577375660484    1.44995935776519    7.48220753374336
H         0.42722790684958    3.72378050104011    8.41314608236398
H         1.23276434438867    5.66064719698739    7.11372793928419
H         2.22229021236502    5.31119085623752    4.86626046193637
H         3.83326134109938    0.92585765695791    1.57647317253332
H         2.79873361801594   -1.01078236191868    0.45975474204062
H         0.39592788769763   -1.47825611887784    0.76516581778324
H        -0.97433601657393   -0.00242984346654    2.18928080238636
H         0.06306403994544    1.92487476524515    3.32582205392420

