44
CSD_code = UCAXIF | q = 0 | S = 0 | Stoichiometry = C19H21Cl2PRu | MND = 9
Ru       -2.40284582792716   -1.96035950536227   -1.82392432003497
P        -1.59607688785188   -1.12408076941347    0.12522126619825
Cl       -2.75195353334409   -3.74740922828800   -0.30993482746738
Cl       -4.44459735408413   -1.05285275867736   -1.08771153065288
C        -2.83624480382922   -1.10321312989558   -3.89877960008496
C        -3.06837360110372   -2.50851018556492   -3.94929007861588
C        -2.07185533792343   -3.40703828503148   -3.55195312802812
C        -0.81848813169226   -2.93498725595432   -3.09474456122006
C        -0.58266684899410   -1.54670090549216   -3.04574227737143
C        -1.57773362125989   -0.63328409733860   -3.47678492859476
C        -3.91294055636510   -0.15405094279726   -4.32207162411732
C        -2.56776114348905   -1.13856885574414    1.63164067263103
C        -1.91918475933944   -1.81677197762990    2.59640078187022
C        -2.45548837365238   -2.07098424712401    3.96269563729077
C        -0.60228355643388   -2.32303077508877    2.19034712900834
C         0.23447698164694   -3.12532544863250    3.12532613507194
C        -0.25715529115027   -1.99959394293067    0.92948902683723
C        -1.07987358609402    0.61085791402289   -0.05000801434048
C        -2.00685439957947    1.48393494898939   -0.61282081345025
C        -1.67949249056002    2.81569272531496   -0.78579041657508
C        -0.42816349120317    3.27736588636247   -0.40592235685773
C         0.49330802740705    2.40731889586869    0.15279164921977
C         0.17200916232165    1.07282302583543    0.33410460198983
H        -4.01206078508843   -2.87621464817366   -4.33672255694081
H        -2.24517041588901   -4.47512197033196   -3.62569695407122
H        -0.03383279996526   -3.63678746234904   -2.83893747224030
H         0.39638052035874   -1.17209488171454   -2.76248868596432
H        -1.35762610694868    0.42825741191457   -3.50828588735498
H        -3.50844860301269    0.83585252788341   -4.52119281497738
H        -4.64646696014365   -0.06986450750821   -3.51447094933969
H        -4.42774003005197   -0.52142093463277   -5.20821777688274
H        -3.54898334222110   -0.69926392664778    1.70294895723357
H        -1.78180874785922   -1.67254548333151    4.72050901671258
H        -2.55348503161824   -3.14288527952792    4.12817525730160
H        -3.43204620407356   -1.61011954681348    4.07916500049297
H         0.43060076561444   -2.56675452863683    4.03956746996199
H         1.18117337685069   -3.39283189126469    2.66360359296058
H        -0.29200845363345   -4.03894088004782    3.39711833371349
H         0.65130608794172   -2.30380579574358    0.43548369947668
H        -2.97843432518711    1.10117967345327   -0.90348106263554
H        -2.39840596565815    3.49609574234195   -1.21825510685358
H        -0.17082480225707    4.31720994307762   -0.54509345899995
H         1.46699760577409    2.76942607257958    0.44988785624407
H         0.88582364127763    0.39179927977999    0.77424511948301

