66
CSD_code = UCAZED | q = 1 | S = 0 | Stoichiometry = C28H34ClNPRu(1+) | MND = 9
Ru        9.88634340593623   11.97899727984048   13.21074745551487
P        10.05261195820389   12.97888162965149   11.14127832901549
Cl        9.01845161745839   14.08532239370196   13.81853371846763
N        11.58145348693351   12.75750972489726   13.64009061299778
C        10.02523956511477   10.47841779967866   14.98812017184647
C        10.56456840865889    9.88632342455222   13.79598666628932
C         9.74187481247439    9.69870149394992   12.66098875372264
C         8.43636449923266   10.29576891563227   12.62622997333844
C         7.92255258776675   10.93928686337176   13.77813241286876
C         8.72428965240527   11.01583798052173   14.96825530569534
C        10.79368819411228   10.42603062802235   16.28310382120413
C        11.97453630934010    9.35595116582203   13.78760107259320
C        10.14655011371772    8.74948202238278   11.56566711831406
C         7.59333814583705   10.09067720479575   11.39424851306764
C         6.49500700024270   11.40206079448593   13.87071699779662
C         8.12654617644378   11.64016694063949   16.19417636498772
C        11.07738058379755   14.47240769385833   11.14421280324798
C        12.13792068951713   14.69448461791824   10.38328031523598
C         8.57328692956737   13.61542120214956   10.30736511820490
C         7.33424885812420   13.59215479903705   10.93309034111030
C         6.22441198465204   14.10701946429764   10.28598204275830
C         6.35187538002588   14.64859994139183    9.01771831083961
C         7.59264426162122   14.69000865195869    8.39882271354028
C         8.70582988505322   14.18050016819081    9.03982455823753
C        10.86109820441400   11.85883436609836    9.96648550442203
C        10.25500813707933   11.36447840829934    8.81747336377872
C        10.94227230736331   10.47721630310401    8.00457327247315
C        12.22613454989208   10.07564979626598    8.33545659171379
C        12.82594730653970   10.54866028191047    9.49413164102164
C        12.14274762322864   11.42871724018165   10.31194150745486
C        12.49598992167386   13.32579398206566   14.05411325271581
C        13.64238406607658   14.03318338515595   14.52882186868103
H        11.63201795917368    9.74014735669443   16.22366920331123
H        10.14049315233812   10.07753494575096   17.08145713516429
H        11.17363583843572   11.40980433823267   16.56115693855048
H        12.62842268790384    9.97822349078209   14.39464832182849
H        12.37573615512474    9.34946060831665   12.77714358129105
H        12.00414271922434    8.33841765548075   14.18059328026233
H        10.91401968476963    8.06347156464139   11.91053968044276
H        10.52338752801622    9.26706824032089   10.68513146398166
H         9.28596304584395    8.15579166031136   11.26451408064938
H         8.21826461296266   10.02191479703572   10.50711541519708
H         6.89787691985008   10.90999299515694   11.23684819969504
H         7.02051111993898    9.16649532234812   11.48796922457339
H         6.44524142414991   12.47516471728132   14.05906874112334
H         6.00951712404416   10.90012677856953   14.70744115852434
H         5.92688001496262   11.18044829376435   12.97403645487619
H         7.62625898786604   12.57222479482795   15.93700045107462
H         8.87756411924962   11.86844736137406   16.94269165276234
H         7.38826398601118   10.96874241354638   16.63483953285796
H        10.70218480137999   15.22119745000943   11.83634239034721
H        12.51504925519777   13.96106397226140    9.68815402950527
H        12.67295556608118   15.62958542199882   10.42647867884287
H         7.25975835907599   13.20283170166357   11.93770039442047
H         5.26156385718858   14.09422933504763   10.77414490697965
H         5.48681771360341   15.05144785618279    8.51383758414166
H         7.69253815312146   15.12809885548365    7.41740564065236
H         9.67880774667981   14.22414916705611    8.56957758406478
H         9.25392039857520   11.67603394774524    8.55595648867250
H        10.47259146036638   10.09888690550164    7.10948812566520
H        12.75807506982839    9.38908619658121    7.69541541113830
H        13.82318504372108   10.22768970138956    9.75544164316931
H        12.58699052806374   11.79792684437940   11.22991817487042
H        14.53853024225847   13.69008489134082   14.01167786933862
H        13.76342032753170   13.87672892547357   15.60068599275796
H        13.50561777496830   15.09843492963020   14.34104007611563

