38
CSD_code = UCEBUA | q = 0 | S = 0 | Stoichiometry = C12H20CoIS4 | MND = 5
Co       11.44541631643797    6.90700627088213   10.17968367602684
I         9.12688571364717    7.47624591801623    9.34664040739871
S        10.98416188805326    4.92322938666535   10.97710449803605
S        11.15182570304882    7.71853834616892   12.19329995740286
S        12.42898277997718    8.76249426448163    9.56878744776243
S        12.12351528923722    6.00126221978877    8.30383440822669
C        10.47882356465293    5.16921749317669   12.57617880996186
C        10.54459144188370    6.43942095360665   13.12416246567095
C         9.94295834123747    4.00330686313357   13.35361654088832
H         8.91086730019869    4.23159257315210   13.64003167404763
H        10.51791612561553    3.91077998701352   14.28115744104756
C         9.97687060677123    2.68517237350928   12.59446132198219
H         9.38011736293135    2.75104760888930   11.68816794687690
H         9.57583559996385    1.88964196718288   13.21741422765353
H        10.99627979268974    2.42759476081978   12.31629496613427
C        10.07219760682476    6.71948758472226   14.52051129789463
H         9.02883381318645    6.39633806448723   14.59809867993813
H        10.65056124618443    6.09825593593197   15.21322507419164
C        10.18087875406802    8.18105319461587   14.92901243081277
H        11.21463688882612    8.51672095178431   14.88914274459371
H         9.81351069604266    8.30889267863793   15.94422901408446
H         9.59079087316709    8.80719671771138   14.26430125460683
C        12.79286462060302    7.26499928384120    7.39478246928305
C        12.94198059390146    8.51482356227080    7.97233960171441
C        13.19051409272390    7.00298316845694    5.97192093734455
H        14.25838894402918    7.22245505079491    5.86411834864291
H        12.65366363153235    7.71166306233522    5.33277748663925
C        12.90830150941295    5.58372121967830    5.50190293389727
H        13.45912568260073    4.86232128157068    6.10101128399163
H        13.20781669917426    5.47247380524268    4.46280344323652
H        11.84771508936696    5.35935592180670    5.58382977872222
C        13.52151796353476    9.67014928401676    7.21068849436507
H        12.89132517221534    9.84859354303773    6.33297155813946
H        14.51022650894919    9.38034958027918    6.83942517784836
C        13.63277652582173   10.95252825979428    8.02191074267419
H        12.65276159525881   11.27238393021259    8.36678468170867
H        14.05971597568992   11.74185400971515    7.40842570559012
H        14.27074769053549   10.80434892257120    8.89015107095602

