58
CSD_code = UCEBAF | q = 1 | S = 0 | Stoichiometry = C24H30ClNPRu(1+) | MND = 9
Ru       10.77567974560272    2.45004837423613   13.20509705323198
P        10.25057135463978    4.69246415900518   13.11702031244536
Cl       10.76058490440775    3.18279411626861   15.44563188076213
N        12.63685758013972    2.91883941565683   13.26656348926102
C        10.98997234770214    0.97534252910587   11.45591931445735
C        11.17846220177063    0.23811465412375   12.66219184077706
C        10.21611724362244    0.25518386134212   13.67034770805203
C         9.01000704876971    1.00156809587471   13.52247000784245
C         8.81118903638670    1.70851444876801   12.32351848489451
C         9.79444572969896    1.70007217896303   11.29833109772127
C        11.98256734623234    0.86277752284309   10.33966624115028
C         7.93652011947032    0.87873316053116   14.57587868572073
C         7.10217833644784    2.14766243810885   14.73474914500332
C         7.04978163503186   -0.31978516377701   14.21337357092975
C         9.59131317269810    5.24863847237580   11.54049975844056
C         8.36728828622989    5.78454482627925   11.70737563394353
C         7.92025022373918    5.81841609201261   13.10841369496780
C         7.51578988606890    6.32897689915803   10.61651147793904
C         6.60902775190648    6.40791146506600   13.48602834924852
C         8.80329291930407    5.29124043140993   13.97882268891545
C        11.61220138124965    5.82386142126469   13.50952991356447
C        12.57389380541308    6.06746532906544   12.53234731129695
C        13.64079679085658    6.90044843280157   12.81380378725673
C        13.75366862517022    7.48294671707682   14.06760754738835
C        12.80181034973844    7.22888271773253   15.04202722138375
C        11.72812620389221    6.39847700077700   14.76968964155996
C        13.72376569205212    3.21934626191950   13.50704623959380
C        15.06879316099366    3.60325660753442   13.78471096673206
H        12.05938213788006   -0.38747444087947   12.76452927146666
H        10.35556222767588   -0.34823764571031   14.56063020755688
H         7.86615675603377    2.20736745282363   12.13834805257083
H         9.58347872576650    2.18854153496992   10.35296633854139
H        12.99837613521071    0.78056898015716   10.72162057259446
H        11.92370419112488    1.71917877217645    9.67172181249077
H        11.76928401025620   -0.03627100846415    9.75880057687712
H         8.42599515017543    0.67402881430564   15.53439925409979
H         7.75501822193777    3.00953837680670   14.86063729112823
H         6.47357557910957    2.05994608542954   15.61631233772178
H         6.45419181176368    2.31298339591132   13.87690499110088
H         6.28893112174104   -0.45560668109984   14.97666104972555
H         7.63547357902812   -1.23397584103053   14.14505135693500
H         6.55502038624132   -0.15362879097616   13.25835242445972
H        10.09630460748956    5.14368663761452   10.59535406256538
H         7.31933119107810    7.38634347469496   10.78749995804304
H         6.55453288738796    5.81745806508847   10.58978267663082
H         8.00192754590872    6.21702116340867    9.65142821627822
H         6.57112257050318    7.45730729026521   13.19712469061053
H         6.44755179262736    6.33396458740960   14.55752685710454
H         5.79703061606176    5.89617035377343   12.97131075543573
H         8.67692995569663    5.22988831720574   15.04635745285426
H        12.47826830612337    5.60350481973313   11.56004785652471
H        14.38336826954614    7.10022543028581   12.05572232185137
H        14.58532747530419    8.13622672664259   14.28382698637505
H        12.89394743332263    7.68071864884778   16.01774618261716
H        10.99145533836626    6.18751704733774   15.52938468833813
H        15.63505932203338    3.69173811259481   12.85764447835792
H        15.54200871796360    2.86107028896398   14.42799772597620
H        15.06133105758915    4.56695756613149   14.29533648872715

