45
CSD_code = UCEDIR | q = 0 | S = 0 | Stoichiometry = C18H19ClN3OReS2 | MND = 5
Re        0.19812350733916  -14.66760921465292    5.82961354519843
Cl        0.30299429602020  -16.83010368941588    6.39215350604495
S        -2.13567248427527  -14.97554875340811    6.22808126894227
S         1.70252625270790  -15.23989917199471    4.14697445842523
O         0.96991276691190  -13.83893356190728    7.05905663144907
N        -2.25409398879618  -12.40258150507645    5.45794732950812
N        -0.26757283866833  -13.19521265191809    4.49671278903098
N        -4.23760138263165  -13.51192759898842    5.54549413706623
C        -2.90873486066256  -13.52047534685119    5.66996274817994
C        -1.01787143950977  -12.22459010432461    5.06638800519867
C        -0.46960665864369  -10.87397449894567    5.25151384217143
C        -1.29669274652942   -9.75422806311221    5.21513942509788
H        -2.34625247824957   -9.88309646798291    4.99988904394063
C        -0.76594754282730   -8.49738625629833    5.43413664357870
H        -1.40683726096620   -7.62918725361230    5.39500740218523
C         0.58522340175125   -8.35081992332504    5.70471407211219
H         0.99722823578376   -7.36741241037253    5.87536226787413
C         1.40621160550745   -9.46605033240973    5.76685857471051
H         2.45443069190796   -9.35413632174282    5.99768535109440
C         0.88664471213612  -10.72544422505240    5.54025388388853
H         1.51397229516321  -11.60251202756155    5.62136422817688
C        -4.88969154537086  -12.29674720558249    5.09018882534556
H        -5.86071826041028  -12.57105862353292    4.67354653684347
H        -4.27855366755456  -11.86379254690632    4.29413432532178
C        -5.06357003048462  -11.27162068363194    6.20705943985158
H        -5.48076247418703  -10.35486349842677    5.79912819802981
H        -4.09990879219002  -11.05166094493641    6.65757815684760
H        -5.73466384166784  -11.64317811783749    6.97621898461858
C        -5.04465278540362  -14.64358899892320    5.95088523826745
H        -4.52848158740397  -15.55979090433584    5.64974914968563
H        -5.99343206669703  -14.58805733711486    5.41306716542417
C        -5.29587697121644  -14.68547195350597    7.45580985852943
H        -5.85915432797172  -15.58072333629840    7.70316743395417
H        -5.86158488459266  -13.81755498453305    7.78296297753299
H        -4.35209882091689  -14.71231794535100    7.99292634459303
C         0.55966984470792  -12.90510603144011    3.42059601568331
C         0.35964845723994  -11.82445738131048    2.55894170503196
H        -0.46406186572919  -11.14836166268085    2.73158662180261
C         1.20794848687859  -11.62933808949988    1.48855053622562
H         1.04988844343855  -10.78463099410688    0.83559717860348
C         2.25118691476666  -12.51264920504334    1.24067331196768
H         2.90879150354830  -12.34946428124359    0.40105472344785
C         2.43319007356302  -13.61334651569810    2.05349046360064
H         3.21859057176030  -14.32710414016218    1.86208405720429
C         1.58441354243245  -13.81868523894572    3.13359359771320

