26
CSD_code = UCEDAJ | q = -1 | S = 0 | Stoichiometry = C12H8O3ReS2(1-) | MND = 5
Re        3.72011472536183    3.45905361964551    4.21409782575771
O         5.02422763212592    4.45230850412679    4.45481595520886
S         2.48575020289368    3.65147427664623    6.20269107212707
O         4.37546887915875    1.68934572175753    5.11434144487224
C         4.04651459064320    1.44106693973559    6.35582793688845
C         4.55799955407426    0.31685247968323    7.02053557264662
H         5.23952792121956   -0.32691724370315    6.48362518439565
C         4.20213103394496    0.04586167378516    8.32701064501961
H         4.61427671199402   -0.82576437989668    8.81891426830177
C         3.32761631047935    0.87515943459568    9.01179810212482
H         3.05483527437633    0.65616094594215   10.03467025285587
C         2.80238601782739    1.98957096861681    8.37839625953400
H         2.11638537009070    2.64895084821988    8.88959716415276
C         3.15614577256067    2.26815708834007    7.07179299889003
S         2.69527723019513    5.11185146307047    2.60831271119462
O         2.55678781832622    2.37128773216077    3.25661120709342
C         1.79800521538010    2.61225432628738    2.21534414542974
C         1.04435565802842    1.62705224455286    1.57334851762251
H         1.09744631053636    0.61208094974677    1.94126737550462
C         0.25317183963551    1.95761285987154    0.49138008837766
H        -0.32655152342762    1.18935616467092   -0.00189033676844
C         0.19895374626800    3.26882148240249    0.03407738067213
H        -0.42259767402597    3.51573602775196   -0.81575200062112
C         0.93215180897623    4.25985226652156    0.65630807534656
H         0.89666607629749    5.28132418678970    0.30927691807608
C         1.73945349704983    3.95008941867949    1.74480123530075

