46
CSD_code = UCEDOX | q = 0 | S = 0 | Stoichiometry = C19H19N4OReS2 | MND = 5
Re        8.41215763197713    4.98807278781018    7.61068765398237
O         8.86752684932278    5.72432797840531    6.18682910044185
S         6.05793061090195    4.56638342162573    7.77263373144893
S        10.24080970736670    4.37529745099572    8.94408661311733
N         6.03837121428331    7.10982635090162    8.63997530878610
N         8.19339956744559    6.35497869532412    9.12790986769738
N         4.10762968500406    5.94874693427070    8.93031375458857
N         8.46031867041974    1.91511601362252    6.76249372716022
C         5.38258117515088    5.98513718125595    8.54163170864617
C         7.33216876004417    7.31209651406705    8.73985084145653
C        10.32396344591403    5.76577213232868   10.00622545511614
C         9.24264690716969    6.65763935632617    9.97893780264638
C         7.79120381842130    8.68169195214455    8.46225493658887
C         9.03961985914605    8.88048934951558    7.87482832669880
H         9.66492604222209    8.03102792547957    7.63255812477950
C         9.45742597844443   10.15936953475207    7.56299342885793
H        10.42139463259245   10.30864253371686    7.10101496081360
C         8.63978981596801   11.24510358236943    7.83441453478798
H         8.97153141636254   12.24374940890422    7.59266783359555
C         7.39253660144000   11.04946347272217    8.40591159799878
H         6.75207226036606   11.89469258670825    8.61004442999000
C         6.96370062937507    9.77273972202296    8.71387063872622
H         5.99665568467937    9.60626235530767    9.16400547681729
C         3.27716517115708    4.78000412111057    8.72928499949203
H         2.24130410018046    5.11716667274655    8.64723269099183
H         3.56306666974235    4.31187324142583    7.78432247468426
C         3.40791872499450    3.76152073620864    9.85864169297035
H         2.79639316589880    2.89236281243398    9.63492487878437
H         3.07835577398494    4.18266730951742   10.80499839406570
H         4.44074911348524    3.43789438581714    9.95561700249973
C         3.57175962344954    7.09650055494483    9.63905933172099
H         3.87945596497655    7.99523886178316    9.09606510571781
H         2.48336323248840    7.02601960513019    9.62039390546028
C         4.06614601089464    7.18311956968139   11.08067655339118
H         3.65382036582393    8.06906145104267   11.55608057680484
H         5.15067228691866    7.25068654961264   11.10435759254471
H         3.76071506229783    6.30998521479426   11.65088385745726
C         9.22958108644611    7.72528271067378   10.87985719081938
H         8.37688856848402    8.38749063882731   10.91383845709299
C        10.29693748238325    7.92102846489794   11.73120188448513
H        10.27781766233964    8.75330700718422   12.41827316906910
C        11.38357219980095    7.05530425051837   11.71979766713977
H        12.21258969504897    7.22045769385694   12.39014054739092
C        11.39416748494625    5.97073713418752   10.86596710277220
H        12.21453573796348    5.27071851958143   10.85732789639396
C         8.45186385227815    3.01754525344524    7.06331717350953

