68
CSD_code = UCENUO | q = 0 | S = 0 | Stoichiometry = C30H28CuF5N2O2 | MND = 2
Cu        5.38024503287601    5.06707862234750    2.66031417263912
F         2.27541105514286    5.11680008934967    3.27186031448440
F         0.64208963551562    7.09788572581889    4.04922406954469
F         1.62164495555220    9.62672075750496    4.43961081808348
F         4.28652304740142   10.11121410566498    4.02928117254871
F         5.92052873502394    8.13024775775757    3.25248448750460
O         9.97337253147893    3.17562219665507    1.36919185173792
O         6.38519266264267    0.17434270187309    1.47554178930373
N         7.86318537849819    3.86322794624185    1.81621000408825
N         6.09576323301875    2.38508018885109    1.86860737048516
C         6.55681409206934    3.63673824622556    2.04761009750151
C         8.79785735387714    2.92132291236060    1.39146448706241
C         8.21514078400360    1.61337052944758    0.89441240321239
C         6.84307508604898    1.28637841657732    1.44917452893880
C         8.02389794539575    1.78902241572906   -0.62948545162307
H         7.62767740587587    0.86868298116383   -1.05289486548540
H         8.98455413697174    2.00473289445967   -1.09198761954287
H         7.33551939142535    2.60366400686200   -0.85034870150452
C         9.18532392572257    0.46275026157411    1.17135735970905
H         9.32345397215384    0.33437387871561    2.24308443924734
H        10.15035862486026    0.67818268485596    0.72158007978235
H         8.78790142757443   -0.46108989308832    0.76076879429604
C         8.34885090783452    5.19008360342047    2.10980872635493
C         8.32137275242450    6.15147123694356    1.10364481586565
C         8.74739276774448    7.43250973673952    1.41293165436003
H         8.71983605991473    8.19402252304264    0.64790380427620
C         9.19517147908806    7.76012556482684    2.68486323652094
C         9.23463857423057    6.76966136876039    3.65583489774116
H         9.59038391773528    7.01165811456366    4.64637766668195
C         8.81664834731275    5.47607182669078    3.38897133277966
C         7.83096450781670    5.80350339844399   -0.26909831402800
H         8.45604831321106    5.02778001286388   -0.71182632401507
H         7.85752410531573    6.67660012084017   -0.91444089829568
H         6.80388000067687    5.43815014038074   -0.22663152740242
C         9.59246307228137    9.16385831023447    3.01205404512703
H         9.99656345254561    9.66982511823056    2.13900288176581
H        10.32856676494922    9.18680248734922    3.81145361163168
H         8.71204410232317    9.71352813677970    3.34442378973757
C         8.85422325949034    4.41174244122118    4.44265883829578
H         9.24426888587035    4.81141291926692    5.37413863953917
H         9.49118244960550    3.58541270729997    4.12739818271455
H         7.85246427566354    4.02157475540109    4.62830821728691
C         4.71534512557816    2.15010329102119    2.21765038261952
C         3.73852514052351    2.32300247172821    1.24095386479787
C         2.41469781990136    2.13634090696043    1.60157904304141
H         1.64290447303997    2.27936359806454    0.86014520243890
C         2.05867921336511    1.78302595217008    2.89574953776822
C         3.06022607294896    1.59392375941034    3.83684976364633
H         2.79530534443238    1.31009042387861    4.84463884039943
C         4.39707577010900    1.77132329903103    3.51825736968098
C         4.11833752209834    2.71308753903258   -0.15527687449457
H         3.23196878000085    2.82283572587678   -0.77314762817321
H         4.75938313742668    1.95326005350976   -0.60267070897433
H         4.65595957901487    3.66237055996892   -0.15327034393352
C         0.61850179000359    1.64508057237197    3.27299175689013
H         0.22088164764077    2.62837137150398    3.52386644190803
H         0.49944277079673    0.99859931073066    4.13853510504545
H         0.03489742779039    1.24694752556465    2.44648970229539
C         5.47452198642647    1.57250940223961    4.54007873219328
H         6.16147589157799    0.78842845409514    4.22196273163020
H         5.04512399459724    1.28714252482771    5.49595260250063
H         6.04433844053219    2.49228342476901    4.67954152158235
C         4.17948918324663    6.52462988837211    3.22398893404912
C         2.81338550478504    6.34512082947382    3.45041276790664
C         1.94608055215143    7.35373364185345    3.85267118492164
C         2.43757286823360    8.63701913634103    4.05195494657803
C         3.78906480716437    8.87739768475456    3.84252633671848
C         4.61409674745552    7.83386470219293    3.44052990800739

