92
CSD_code = UCEPAW | q = 0 | S = 0 | Stoichiometry = C42H43CuN2O3Si | MND = 2
Cu       14.09614865624444    3.89603927527244   -1.00530215599283
Si       14.95448494105871    3.60738918240404   -4.05661725195220
O        14.82351167209190    3.35554851211679   -2.49545563018754
O        13.56606386788606    7.66424262610459    2.28432230543376
O        10.17931811369982    4.46185012170375    2.18067538943059
N        12.05705991780389    4.22769539001620    0.93604490579397
N        13.72377893588562    5.82087005818790    0.97887126295619
C        13.23641023378176    4.67437896194557    0.45773643591547
C        11.30303843361938    4.82307530535568    1.94357582183760
C        12.02967977140150    5.88048033533328    2.75038553871477
C        13.14722659721071    6.57295056028457    1.99515750302886
C        11.47362424343273    3.08258570778043    0.28199844307913
C        10.73629186479778    3.25853039163547   -0.88602105006557
C        10.18088192466837    2.13801302733150   -1.48395847398681
H         9.60917614996969    2.26257282663391   -2.39131459096542
C        10.34761753922978    0.86979990311743   -0.94755165824551
C        11.08301269257687    0.73049724629106    0.22163349009348
H        11.21720944079663   -0.25193211921188    0.65028037883800
C        11.64943904122050    1.82511735361890    0.85428178363639
C        10.57266785917241    4.61287499785124   -1.50255826230981
H        10.28735824911282    5.35410145129910   -0.75719195602123
H         9.81293438350858    4.58775586009154   -2.27851725804009
H        11.51672426708008    4.92076136033240   -1.95775718889089
C         9.77177065277860   -0.33143703887645   -1.63073640322056
H        10.51717891014794   -0.76542262890035   -2.29821054661288
H         8.90122460733555   -0.06220071261479   -2.22383467304855
H         9.48659533482653   -1.09152744033504   -0.90719356627807
C        12.44254819805654    1.66859249578538    2.11554462358845
H        12.54947689979009    0.61832062086491    2.37101708278342
H        11.94309752225317    2.17438177156166    2.94154831448343
H        13.43598575843150    2.10122262714524    1.99438725892840
C        12.70820406235436    5.13502573280161    3.92158898931758
H        13.41938423753816    4.39502629900386    3.55810598658176
H        11.95084624658274    4.63327971933156    4.51983785062997
H        13.23399108029460    5.85129743458569    4.54911694972470
C        11.03638767168401    6.91123703925297    3.29029019319591
H        11.55832331596308    7.63834593513525    3.90575969392896
H        10.27154035748282    6.41328866889079    3.87927971821771
H        10.55332613344840    7.43581818821353    2.46863127045481
C        14.90373316391441    6.35884109455476    0.34643473989263
C        16.15494190748537    5.96305036166542    0.81095757793258
C        17.27796815563645    6.45518178705109    0.16543378523846
H        18.25600878358450    6.14980506837336    0.50770326904821
C        17.17141276722045    7.32336646506218   -0.91199608830330
C        15.90935354090928    7.71962671020095   -1.33083018006795
H        15.81553148959924    8.39853424768401   -2.16471657852680
C        14.76130436252652    7.25102316637150   -0.71354853491986
C        16.27097599165795    5.01606173405724    1.96653575848945
H        17.31429368579660    4.81278320177530    2.18966032171201
H        15.77493630386778    4.07334704229757    1.73060044035287
H        15.80330601628586    5.44023068344311    2.85489407642203
C        18.39292850897292    7.80395141161519   -1.63006030228989
H        19.25975783605440    7.80366573607171   -0.97382824492854
H        18.24221021748292    8.80636436729640   -2.02277089176246
H        18.60023484467799    7.14149573585301   -2.47034980660980
C        13.40448602189180    7.68696856051741   -1.17072562398228
H        12.80304510516927    6.82360730933559   -1.45495851653002
H        13.48988205166848    8.34396614613753   -2.03085807419280
H        12.88837294638021    8.21958234421152   -0.37187686100301
C        15.13787475684610    5.46410069892241   -4.44146115052184
C        14.01952149413387    6.28506607819641   -4.53148997839198
H        13.03679660148938    5.84836953089241   -4.40900311647464
C        14.13693527173266    7.63895591743499   -4.79055263207844
H        13.25137446535691    8.25639431249609   -4.86536438549889
C        15.38971479680870    8.20244180132648   -4.96510334985916
H        15.48681853282323    9.25901780590325   -5.17499907619893
C        16.51673884093879    7.40293343333114   -4.87451227231367
H        17.49747552301358    7.83724375544252   -5.01457363977828
C        16.38612675246465    6.05075992083905   -4.61234800443359
H        17.26924165710421    5.42961848423791   -4.54838471078078
C        16.47498287090035    2.70518381733656   -4.73087261069864
C        16.89099190414071    2.88079103517234   -6.04586153503145
H        16.33459136816925    3.54372380961453   -6.69402136228776
C        18.00702483152680    2.22839543146924   -6.53731874841529
H        18.31533619821199    2.37928374835949   -7.56307707248420
C        18.73190650563177    1.38184289307415   -5.71507499111123
H        19.60508376189127    0.87088973246314   -6.09647199905465
C        18.33250017314596    1.19504069106915   -4.40258767400484
H        18.89554400350992    0.53563789449255   -3.75582402004612
C        17.21462633331091    1.85249186155120   -3.92101049202366
H        16.90109377769856    1.71161167603541   -2.89697579998975
C        13.39414572922708    3.01102556438191   -4.96400597528860
C        13.11624135436482    3.38701286980126   -6.27379608958922
H        13.79789728764722    4.04894587519379   -6.79021852889047
C        11.98086267222569    2.93929912917488   -6.92446868298382
H        11.78408369396232    3.24423783813882   -7.94334879107212
C        11.09504793611899    2.09867925425203   -6.27137366415476
H        10.20859765432909    1.74376074655067   -6.77878353796364
C        11.35152814392149    1.71713766230290   -4.96547387843432
H        10.66481098140252    1.05900220875781   -4.45082981442760
C        12.48850664754276    2.17310460991543   -4.32283990595004
H        12.68335401481758    1.88029969555288   -3.29992331220043

