117
CSD_code = UCEQOL | q = 0 | S = 0 | Stoichiometry = C52H48N6O10Zn | MND = 4
Zn        4.33169884404069    4.92918009102736   10.48306930254733
N         3.34125199922371   11.43174615858798    8.99024352686993
O         5.24714210320274    6.50781047054067   10.48700529223975
O         0.56297191091825   -0.00914799213432    8.87644812707643
C         4.29589470502472   -4.88427702590018   15.11930542610787
H         3.33401765900240   -5.20131602679831   15.49708449170648
C         5.23708473982265   -7.06479593977283   15.92123483725823
H         6.20236361188596   -7.48039859980057   16.19902858284284
H         4.61650652659496   -6.98404660431319   16.81181854607152
H         4.74896250569381   -7.76136864677693   15.23855053099323
O        -2.03999547409089    5.86859143739028    8.82341064776634
C         4.26300220468903    2.20954994262841   12.23737258911294
C         3.26461591068622    3.17128170352306   12.52412855260469
H         2.51967618833419    2.88216305935410   13.27092584118221
N         3.17402586898312    4.34427406620436   11.98017090786652
O        -2.73124710947712    5.52434904657341   11.88956365679346
C         4.24336661653054    1.01591273580111   12.97708107354074
H         3.50774793675115    0.88957084111567   13.75915012701477
C         5.13978609749431   -0.01069241085243   12.74483052802110
N         4.98460448638435   -1.15276462678763   13.49503800325069
N         5.86658543747261   -2.05936712821138   13.33878567509928
C         5.66386433048514   -3.24179061539077   14.01261002111544
C         4.42014596455019   -3.65718286283798   14.50957804185440
H         3.57242496586498   -2.99938546707801   14.38998660625975
C         5.39489719826856   -5.72972046512214   15.26356568909565
C         6.62676018293170   -5.31568934421544   14.76560027715422
H         7.48624188139276   -5.96272960012373   14.87058498513874
C         6.76418974697383   -4.09586644765401   14.13828977966641
H         7.71935213990090   -3.77089541632509   13.75508225954150
C         6.11806019654699    0.15812284749033   11.73130696951288
H         6.81403770883641   -0.65043513071292   11.56294105728251
N         2.91344351812268    5.48624267101313    9.21827367506556
C         2.80451522249333    6.73037922049669    8.85204284784536
H         1.96657930017054    7.01057993661756    8.20936506703091
C         3.64621936356696    7.79565123661232    9.23898746688453
C         3.23768545961814    9.09102091450396    8.87546869860260
H         2.35007461421481    9.21580778176494    8.27080463943954
C         3.90891914220118   10.21937153111549    9.30362769520674
N         4.00975282958103   12.47323247015218    9.30189531913218
C         3.40269213314693   13.68622403327234    9.05939608523495
C         4.17848751858660   14.82581919496195    9.29378613226073
H         5.19847476626674   14.69794458063940    9.62186769941420
C         3.64380302150318   16.08179230234169    9.10139277668176
H         4.25231929506789   16.95664250674103    9.28183945679683
C         2.32707662802750   16.24130751669930    8.68053387467070
C         1.75153255798709   17.60430501328351    8.45555942874853
H         2.31282443684806   18.35985540852884    8.99967628923633
H         1.79012456617456   17.85213697050808    7.39399932818244
H         0.70996932236378   17.64182320241490    8.76799413808777
C         1.55466764876713   15.10345370902277    8.45124103718125
H         0.52986420464124   15.21918221866749    8.12531347114986
C         2.07619812446124   13.84338298730173    8.63302188812861
H         1.48269837362794   12.95920918513084    8.45625026810169
C         5.08198547812277   10.05908716697514   10.08595722293461
H         5.59814462653990   10.95097261282592   10.40722597687255
C         5.51607889554199    8.81921437422688   10.43382439152907
H         6.39614448776567    8.68526902358147   11.04470988935062
C         4.81474181369832    7.63788746215278   10.06119545396009
C         1.85347013137069    4.60018782296288    9.02923161660254
C         2.12394414932123    3.23292448496522    9.07090440820986
H         3.14841518962286    2.89555339960943    9.12651655601988
C         1.08954204781279    2.30783833675258    9.05295289665796
C        -0.23059845067607    2.73661385960617    8.96251481182943
H        -1.03633445404857    2.01874007364330    8.94962896644895
C        -0.50740923243046    4.09729408394519    8.91703013381748
C         0.52571387571969    5.02461344589408    8.95883464219288
H         0.27437952083756    6.07246503552393    8.99462484634882
O        -2.86479587106320    3.78704505576597    8.99783180215082
C         1.35977609531204    0.84618440677711    9.16981595228450
O         2.58037709385935    0.60583397825979    9.65591122269633
C        -2.98843033915760    2.86423349362478   11.99687332445176
H        -3.66323127172627    3.30988748302745   12.73591510243354
H        -3.40672658524860    3.02590801920870   10.99816860124008
C        -1.92908800373102    4.54498567575392    8.91029382384260
O        -1.72162024607139    3.53077495206259   12.07083553125473
C        -4.12771006594381    6.24963807744066    7.60074997654905
H        -5.09432150272524    6.73732747572237    7.68714667770353
H        -3.57688233958232    6.69524845900461    6.77547048693063
H        -4.28361869580243    5.19419767856960    7.39318820982075
C        -3.35912303737794    6.41877361276772    8.90239456298635
H        -3.88721291695658    5.93774934531420    9.73101736789076
H        -3.19958380331982    7.47322502699035    9.13465842359888
O         5.33995233402943    3.40228673462110   10.44115370611221
C         6.16203753450694    1.30180648099364   10.99722161143595
H         6.89865386210156    1.43988392601070   10.21967181429485
C         5.24678813020984    2.37395868912010   11.20230544984187
C         2.03884350256123    5.13752706081563   12.13324438804172
C         2.18996228625499    6.52165629336978   12.09727654006037
H         3.17574230937877    6.96245753473419   12.13233413698100
C         0.75528720693616    4.59569334934931   12.13460144770370
H         0.61296137531262    3.52622895355291   12.13032373651881
C        -0.35391207037732    5.43052589145545   12.05218523084346
C        -0.19499081125408    6.80862188108826   11.94971836304863
H        -1.06520459069087    7.43625458667170   11.84093530143802
C         1.08488351065900    7.35212603613199   11.97973983594127
C        -1.72957980440579    4.85770190014934   11.99499461801174
C        -2.75970728421334    1.38870225585605   12.26107723684653
H        -3.70610007859927    0.85999219431618   12.20057060358997
H        -2.07856348065222    0.97894987038678   11.52009675464436
H        -2.33263735727213    1.24108438272273   13.24996217284042
C         1.35077967559343    8.81180404147143   11.82711567656734
O         0.34031751363079    9.45257992112820   11.24581130747382
O         2.38303121336320    9.34021009436007   12.15928946636151
C         0.52619036855539   10.85549863545644   11.02151003760460
H         0.67783895346202   11.34777689764179   11.98825798308845
H         1.43104199019436   11.00097463566751   10.42042005817041
C         2.31510014091273   -1.40545134020947   11.03012245702446
H         2.69394202324654   -2.41694758752071   11.14461242011017
H         2.55668606936386   -0.83701598346839   11.92425116819784
H         1.23590869421557   -1.44435715017710   10.90627805618315
C         2.95992166969365   -0.76471376409004    9.81021236143760
H         2.67671044344147   -1.31150152204429    8.90463533779073
H         4.04679632504889   -0.73854597204934    9.91014336419843
C        -0.70242172771675   11.39242924824524   10.31316539183145
H        -0.58890935008416   12.46087953020225   10.15495131527389
H        -0.82681647260523   10.90072116730286    9.35212988685126
H        -1.59111982994512   11.21408056559764   10.91282865075264

