86
CSD_code = UCETOM | q = 0 | S = 0 | Stoichiometry = C38H42Cl2S2SiZr | MND = 12
Zr        8.47478348518737    0.66608293246086    3.82671893580372
Cl        6.23033886018861    0.95250873556307    3.24445854786716
Cl        8.02102861542337   -0.79289804581785    5.59266340742790
S        11.12705085639777    1.27979302304505    6.34601731554148
S         8.44763556115364    1.19609991026108    0.15707015837158
Si       11.35022862646489    1.91964902808678    2.56566303904392
C         8.79345009231068    3.07853326875164    3.61873709294296
C         7.99541634826991    2.93636186698314    4.77814955069642
H         7.01671989896670    3.37776987528232    4.92225130013402
C         8.77619097529803    2.26373954281322    5.75669035599781
C        10.05102325789868    2.00696185688838    5.17637921423108
C        10.09993610821490    2.53263972905156    3.85217504604589
C         8.31940588750346    3.79445604916395    2.38529825564156
H         8.15388774805978    4.85062584355941    2.60634859449281
H         7.36780528250577    3.37430407262616    2.04641384743069
H         9.04525406206897    3.72606257747448    1.58017487462045
C         9.87046736675926    1.31879073033311    7.55113928744524
H        10.08965845307334    0.89655238418832    8.51203082866174
C         8.69034758836962    1.84359383765669    7.12697378669836
C         7.46236032908003    1.92342597114048    7.91419034765161
C         6.23236833461466    1.69121944766836    7.30395895320835
H         6.19140804377797    1.41568481921752    6.25401196879184
C         5.05993769961663    1.76877366524553    8.03300746009582
H         4.13271854971112    1.57498026750054    7.51921567155879
C         5.06768966043838    2.08426240096775    9.38711084829801
C         6.30536287316568    2.30086847933848    9.98960958425860
H         6.36053178211666    2.54153170165104   11.04078087466155
C         7.48158740969208    2.22014259232345    9.27368638985951
H         8.42585282381584    2.40628249663564    9.76451225719203
C         3.80080368828574    2.20058356991773   10.21958976077608
C         3.71089469701639    3.62254795038002   10.79231918606733
H         2.80109479748968    3.73317913161389   11.37868214228780
H         3.69233244004660    4.35195255168278    9.98513494535904
H         4.55843563477477    3.84675917284430   11.43407803456180
C         3.85725542085645    1.18127054556312   11.36616720772417
H         2.94865686999882    1.23682996009630   11.96225495479289
H         4.70463949690629    1.36643338090873   12.02036728107399
H         3.94839029714631    0.17306448013301   10.96765578759234
C         2.53243147059061    1.93291757373875    9.40516210764381
H         1.66066128793165    2.03316555295133   10.04887589432253
H         2.53443254894164    0.92491903377466    8.99723800198568
H         2.43229357039499    2.64718015368899    8.59124736331147
C        10.27143679452084   -0.82469034511865    3.10834569271134
C         9.08983094352357   -1.54613839545089    2.81752530209808
H         8.83971232283845   -2.52312657817698    3.21300532248670
C         8.39341497063109   -0.83737571539982    1.80161453950077
C         9.16866246137906    0.31374258351220    1.48234811537378
C        10.36225829118347    0.33045015210372    2.26160631282209
C        11.29438233044429   -1.30145685694255    4.10065909520229
H        11.74574465611090   -2.23305708655425    3.75393984244988
H        10.82008189666742   -1.50288185803548    5.06581598617550
H        12.08674358949022   -0.57157695478888    4.23932727591256
C         7.14671163074657    0.04134752615179    0.07416301657585
H         6.36778261143095    0.21966084049332   -0.64075377019670
C         7.22051550493639   -0.96631022914715    0.98362833635374
C         6.22326555298453   -2.01692754338063    1.17284576605966
C         5.91331793081116   -2.45393178554120    2.45820292093066
H         6.38615011123264   -1.98789799888678    3.31800801782747
C         4.97610904702921   -3.45145186011644    2.65475320643338
H         4.76480147967275   -3.75274348965361    3.66758332589805
C         4.32106981548643   -4.05180809772222    1.58527672317356
C         4.62998351979653   -3.59689655988125    0.30492449307665
H         4.14112830504480   -4.02916386721093   -0.55536345717004
C         5.55835246928831   -2.59806763821923    0.09736168100809
H         5.78690760313621   -2.27427112475234   -0.90767519044542
C         3.30072752946769   -5.16587200528447    1.75652099753839
C         3.79521371728297   -6.41339422481515    1.01004864177880
H         3.90947967498351   -6.22054482906737   -0.05302493613622
H         3.08639156575219   -7.22955588230206    1.13374287261270
H         4.75868581560157   -6.72995053022070    1.40435447725675
C         1.95623526107632   -4.70955717071496    1.17261146941474
H         1.61302500871234   -3.81006565867898    1.67930149915037
H         1.20719583900741   -5.48777436575577    1.30392942546476
H         2.03784880809505   -4.49217167367185    0.11128923421905
C         3.08015305876426   -5.54449839967091    3.22340612694711
H         2.70262596259234   -4.69874996459306    3.79309462996971
H         4.00192990700540   -5.89873509041290    3.67892381562813
H         2.34595219299202   -6.34548901992882    3.28466267702145
C        11.52280555635044    2.94274580200787    0.96775334394231
H        12.43677922049963    2.65858113881458    0.45738027500201
H        11.58746282067612    4.00402413703686    1.18311609336979
H        10.70295147419161    2.78350351563701    0.27561462491505
C        13.08702208448161    1.72803231619314    3.32505829821562
H        13.64740779566479    0.93821811407308    2.83607900240900
H        13.06041013110314    1.51997947684001    4.38930818953312
H        13.64096393678911    2.65074507984402    3.18977622532407

