55
CSD_code = UCEVOO | q = 1 | S = 0 | Stoichiometry = C20H30IrN4(1+) | MND = 6
Ir       11.82192190536515   12.33176413492389    5.51936328268313
C        12.89843679709682   12.81488952709757    7.21337070538248
C        11.00207262513512   14.22747882252797    5.48586041585146
C         8.94844658086242   13.66747352793811    6.76489781854803
H         9.31388681605626   12.65200830674571    6.60008882036812
H         7.92538078933722   13.73607209148518    6.38555740685035
N        14.21848557690410   13.08907925142990    7.29887573253813
C        15.13614223681815   13.18220928497796    6.19603567007237
H        14.61730758282872   12.90383587573907    5.28075231315021
H        15.98079158623686   12.50968958132285    6.34998215889861
H        15.51670665589849   14.20084108131434    6.10356611080246
N        12.45168110967094   12.84035162656735    8.49090832370608
N         9.79279215735742   14.55165851456680    6.00132203301759
C        10.53362549043147   16.36949385507234    5.04081605493602
H        10.69314751193046   17.34867546310209    4.64008856730076
C         8.95333722385791   14.01033394097998    8.25998593619521
H         8.47978170760273   14.98246284816754    8.40553698805486
H         8.35297570158278   13.26724796240086    8.78505782799088
N        11.44627633435808   15.35832163602143    4.89606582552186
C        10.35736963003004   14.06757375689449    8.85963538280620
H        10.29047916151126   14.46600870235455    9.87183184002943
H        10.96112579317182   14.76579162269721    8.27569467124609
C        11.07116587257045   12.70291116532161    8.88017071367628
H        11.03058325233579   12.26091513539046    9.87711949540387
H        10.59700233245024   12.01663382525129    8.17760198170810
C        13.47252126646990   13.13320438838132    9.35341592961676
H        13.33053845091399   13.20168358045276   10.41159048623845
C        14.58740007857541   13.28532926584302    8.60319369288373
H        15.59409875403924   13.51003284994264    8.88757463953639
C        12.95027897026996   10.47940630720243    5.20985380697319
H        13.92157793621094   10.55845606526922    5.69098156034846
C        13.00950979984326   10.07011528811628    3.75667421164577
H        14.04030041512882    9.82316903072567    3.49848173215182
H        12.42030632065048    9.16412995857458    3.61657922651053
C        12.52017961064902   11.18066441090918    2.80940464244583
H        12.14045579822750   10.73777670529457    1.88366586518851
H        13.36693833263952   11.81310739964943    2.53257727523782
C        10.33292521172895   11.60958834870676    4.08817922722392
H         9.46854791441897   12.26943645485326    4.10372761126826
C        10.00179873412676   10.14945967887772    4.29003233884653
H        10.37323387829423    9.57900752335947    3.43899335965591
H         8.91741986137759   10.02984395129096    4.30492471636938
C        10.57408559474801    9.58559387058282    5.60392631718459
H         9.83921077184103    9.72069907905219    6.40138785758960
H        10.73538910880806    8.50784143567934    5.50461359483196
C        11.86475084651441   10.23516750394355    6.03538468488439
H        12.06353416000703   10.12141237270144    7.10059813936697
C        11.45129003129742   12.06082705238585    3.40650074443398
H        11.37837420226932   13.03130211433089    2.91777797494229
C        12.69642484401631   15.50776988979744    4.20320035393948
H        13.20431130336430   14.54546125752314    4.18933150084948
H        13.32468880990128   16.24405063143057    4.70714646345972
H        12.52452504947254   15.84105829548074    3.17892620364522
C         9.49308248302903   15.86115145281889    5.73911057678471
H         8.57847902975532   16.31823229653154    6.05415918922201

