111
CSD_code = UCEWUX | q = 0 | S = 0 | Stoichiometry = C48H56Cl2N2P2Pd | MND = 4
Pd        4.06742552960602    0.40112168653394   10.98444766417223
P         5.33808312437451    1.08144909394715    9.23901059846234
Cl        5.72767973084004    1.36752519731601   12.23524603645597
N         5.93406146396717    2.65146014265440    9.38201887129025
H         5.99834621881628    2.87559981821072   10.37776177126167
C         4.67482441846176    1.08944221614012    7.54429665447588
C         5.39092976917890    0.65086093736079    6.43893755710143
H         6.38079797618341    0.23436678918866    6.56122275530855
C         3.39288790689197    1.60179236075546    7.37840994801536
H         2.82236357027808    1.89849227639172    8.24937766867879
C         5.35277507180547    3.70907062696246    8.61758572450575
C         6.58174289251700   -1.30404831128798    8.82033346476713
H         5.55687564213423   -1.63359850278160    8.67406835982629
C         6.81492231343200    0.03750804699217    9.11312966804791
C         6.02328523839353    4.10391051611531    7.45499877895398
C         8.93701840835638   -1.72588712721104    8.91910439698971
H         9.76750966287077   -2.41181576813475    8.83810478942014
C         9.16561146062534   -0.39801025579058    9.24130191348655
H        10.17395774806884   -0.05225589825322    9.41641490909430
C         7.64349840609394   -2.18207710475835    8.71009680164322
H         7.46889311201868   -3.22084954765772    8.46817450329965
C         4.83285281628817    0.74827693242813    5.17657273279501
H         5.39112787914098    0.40528610032516    4.31722481953858
C         8.10709156233596    0.48902505362613    9.33883919415501
H         8.27200620608125    1.52541492120848    9.59282183723484
C         3.56580164041442    1.28240569211148    5.01202302827703
H         3.13712786839922    1.35882717280875    4.02348397918619
C         4.16993800768853    4.33818782406510    9.02018218251714
C         7.31589524066586    3.42720257591809    7.06684769603402
H         7.28840738193241    2.40485886682299    7.45420594094343
C         2.84288989995153    1.70505508278551    6.11541507474039
H         1.84806944576863    2.10641606017875    5.99060647686393
C         3.41921326438936    3.90569923786895   10.26173597271487
H         3.61478003999558    2.82907636315644   10.47203669901983
C         1.90258356335371    4.05258727035116   10.10336292413722
H         1.59280299157309    5.08950048132675   10.21419446387541
H         1.39385044691956    3.46551014188430   10.86480442750339
H         1.57757881932150    3.69720994617616    9.12757521328132
C         7.52842309151854    3.35038054526222    5.55675184858602
H         6.63774487613484    2.96446803933164    5.06573540624553
H         8.36014743377758    2.68376248493389    5.33787914912419
H         7.76557351433331    4.32586093442218    5.13910243543878
C         3.91189133499466    4.72042139305548   11.46262450896398
H         4.95822543696887    4.51250998795549   11.67610972552041
H         3.33074773736455    4.47499107474484   12.34796945684776
H         3.80636433350708    5.78501358861813   11.26012116053949
C         3.69944561694928    5.40223799688169    8.26086273240425
H         2.80198232418831    5.91904250035309    8.56092514166112
C         5.51192188995890    5.16022526558152    6.71696171060380
H         6.01898327535043    5.48756311162922    5.82360085424908
C         8.48191927158187    4.15867063570719    7.73911760128286
H         8.52815759360532    5.19064729374543    7.39712111306056
H         9.42362905931634    3.66982927550531    7.49886772622335
H         8.35499972896167    4.16129782173877    8.81901913610109
C         4.36119025196785    5.80982995893712    7.11998992231686
H         3.97770551513699    6.63777611484042    6.54204603499960
P         2.79622224578144   -0.27943876700807   12.72963969664529
Cl        2.40549802224190   -0.56658468154158    9.73613167097287
N         2.20037242495071   -1.84950480441876   12.58658219625586
H         2.13631288583049   -2.07367272183375   11.59082443678680
C         3.45937807396497   -0.28775765132421   14.42438240970212
C         2.74338837246474    0.15094190693352   15.52978794213325
H         1.75366109142193    0.56777438510413   15.40751051440939
C         4.74134390956389   -0.80008693110571   14.59019049659389
H         5.31180247443907   -1.09684912028553   13.71919902010614
C         2.78142769159974   -2.90710719700719   13.35129470472773
C         1.55216043921904    2.10570227554034   13.14884807609509
H         2.57696966511318    2.43535438959702   13.29515903439773
C         1.31919194750441    0.76417020763388   12.85589248021895
C         2.11085809177853   -3.30172654113348   14.51396196666406
C        -0.80314325068648    2.52725983168518   13.04972665905909
H        -1.63373712205310    3.21301862708323   13.13096698016071
C        -1.03154172101642    1.19939783032583   12.72739246757775
H        -2.03983535007253    0.85353915679196   12.55218846302166
C         0.49028876565071    2.98359548155721   13.25894588266246
H         0.66472651460927    4.02234405729588   13.50110386865034
C         3.30173105269934    0.05397679331969   16.79207817434853
H         2.74352684712705    0.39697284263988   17.65146700632552
C         0.02710817442310    0.31251264922421   12.62993721771800
H        -0.13763977203839   -0.72382932639351   12.37568225587512
C         4.56884298118824   -0.48003051104872   16.95653323405861
H         4.99747297535169   -0.55672022121442   17.94506921981485
C         3.96421220127172   -3.53644419978397   12.94888080492718
C         0.81829978321813   -2.62488042473289   14.90206633433356
H         0.84583335860843   -1.60256344782177   14.51462554462450
C         5.29155792496998   -0.90300166341316   15.85312661137428
H         6.28628509189015   -1.30461722863519   15.97790760534678
C         4.71502604729845   -3.10435573372500   11.70726536105852
H         4.51968960185470   -2.02772304105326   11.49688036960736
C         6.23162406430778   -3.25137975629998   11.86570681177381
H         6.54123484654923   -4.28835068702010   11.75499669315715
H         6.74039398029832   -2.66449619544099   11.10414333368273
H         6.55673548108801   -2.89592907393277   12.84144363299280
C         0.60578779266228   -2.54795100217498   16.41216734012613
H         1.49648525581482   -2.16205922217463   16.90316481706273
H        -0.22589555882054   -1.88127515529075   16.63100914323374
H         0.36856554824264   -3.52339892281870   16.82985796421149
C         4.22214590642666   -3.91907473972632   10.50645764300510
H         3.17580388121294   -3.71111990691015   10.29302664000913
H         4.80327430975449   -3.67376247761250    9.62107471282441
H         4.32760275812599   -4.98365543229754   10.70904060940439
C         4.43460290950305   -4.60041727555433   13.70835627979516
H         5.33204969868590   -5.11733991445421   13.40844076552149
C         2.62215461457534   -4.35797977907449   15.25219499681437
H         2.11507488542344   -4.68508819414416   16.14562560515767
C        -0.34777208170914   -3.35638762795313   14.22990319230689
H        -0.39411191094666   -4.38828954311845   14.57211859472809
H        -1.28944607827073   -2.86741990043602   14.47003613073702
H        -0.22085244870410   -3.35924435931881   13.15000311432457
C         3.77281543171002   -5.00778151957235   14.84927237484635
H         4.15627624915111   -5.83559047488918   15.42742973577968

