63
CSD_code = UCEYAF | q = 0 | S = 0 | Stoichiometry = C20H31CrN4O6P | MND = 6
C         4.29252248424791   12.85362142978888    2.67067414843156
C         5.76732363067715   14.53299067544426    2.51755139244946
H         6.26027659694627   15.37924836848176    2.08646392606667
C         5.99090311380432   13.91136310113807    3.70517996256439
C         4.20760421790887   14.28478710900577    0.61328052433449
H         3.41626133875059   13.57026636711892    0.36329781684917
C         5.29409438471335   14.21113441147110   -0.45761812926786
H         6.08864328207510   14.92925961043748   -0.26745325488980
H         4.86291996255652   14.42782399797234   -1.43067665603045
H         5.72254597629169   13.21191180456763   -0.48787496910904
C         3.59652716510908   15.68075916507457    0.71884934369351
H         2.83763688105943   15.69696756763575    1.49761590502494
H         3.12797500863031   15.94858659325330   -0.22373440403298
H         4.35283652019351   16.42677193209323    0.95244029268606
C         8.60358824483118   12.23745409777909    3.96425091261542
H         9.66642886680215   12.47192891645705    3.82398624333280
H         8.05532336087656   12.62060767417635    3.09934235711834
C         8.42851529801166   10.72109630500763    4.01132128819876
H         8.70845428382281   10.29785649359427    3.04996989400635
H         7.39343205863423   10.46104630169341    4.21489902199431
H         9.05841682822144   10.27281919294038    4.77457346150366
C         8.66780195456911   12.59846693099889    6.42268777290783
H         8.62601990691452   11.51833944460798    6.59055352765575
H         8.04038748087573   13.08390781742642    7.17372038059614
C        10.10248432830234   13.09315970775062    6.57640389943556
H        10.45686849972079   12.87855571423020    7.58131686762943
H        10.14262515137831   14.16814168422983    6.41672717958129
H        10.76759294513945   12.60225176434892    5.86881442906529
C         7.93221503380606   16.86921297009297    5.22266363614047
H         6.91048181733122   16.95400119846777    5.59841635691298
H         8.11312179651634   17.69012404721683    4.52205148826234
C         8.88527180988148   16.96288158855935    6.40947113226113
H         8.75111606796082   17.91759733047386    6.91224951257752
H         9.92298392894240   16.87652697581902    6.09831809522868
H         8.65901069704404   16.16575236888270    7.11249106334025
C         8.82631625566051   15.59952519497966    3.27983935311990
H         8.52724401758194   16.44601414331066    2.64568117349725
H         8.59396779362716   14.67817323927669    2.74371339106949
C        10.33449637513039   15.67293848889375    3.51196704345498
H        10.65226008668866   14.88467025519971    4.18883029738845
H        10.61592579632213   16.63302913178729    3.93548144336506
H        10.85554820470945   15.55126576426892    2.56506518908987
C         4.90853387272038   12.06193722978762    4.93501335130640
H         5.11148421450238   11.01819741532731    4.68927503966729
H         3.88690369500862   12.13416272174875    5.31205709261743
H         5.59673604869380   12.40026404657930    5.70661890578330
C         1.69074582255854    9.98261913965378    1.74652069061979
C         4.00290620124620    9.93595624302924    2.69153942550706
C         3.54826041727038   11.06988557733204    0.46879758179139
C         1.54971961382365   12.49846808946392    1.57123273393885
C         1.97846180407983   11.33918259047172    3.82957917029897
Cr        2.86905679150229   11.32765501384222    2.18462245712941
N         4.73969255642938   13.87806145026452    1.90115077963839
N         5.06290020974440   12.89938467209244    3.77821709108809
N         8.06888244976622   12.90086683748491    5.13627176836492
N         8.04160663501847   15.61467150996126    4.49348285712458
O         6.48796586823381   14.61589190383738    6.30977783533457
O         0.96286561093507    9.13196660935614    1.46759515008316
O         4.56095593772907    8.94338859469099    2.87969431790558
O         3.84979014021401   10.73800164671451   -0.59450164774226
O         0.62074855904228   13.04551942656841    1.16401198966669
O         1.26804537298474   11.19166586163099    4.72399255278826
P         7.15786872624640   14.30551654439867    5.04894854694778

