52
CSD_code = UCEYAD | q = 1 | S = 0 | Stoichiometry = C19H26HgN3S3(1+) | MND = 3
Hg       -1.42244643737116   27.47743401605410   13.57279617234842
S         0.48499461624998   27.50072790770776   11.88006778209436
S        -2.00651669277982   25.49430678853517   15.05516620747094
S        -2.64780398632927   29.77456262683079   13.56638761547325
N         3.72395570371527   22.43901342946432   12.27179240912633
N        -6.94884343863838   28.23657907131759   17.06216979964761
N        -4.71909758399078   29.75480793140025   15.43878195795709
C         1.38060988064083   26.02815168890353   12.03413063136056
C         1.26785766482704   25.15006195428153   13.11567722343475
H         0.57904064161213   25.36399480578508   13.92303463460980
C         2.02494374633490   24.00255130363967   13.17286765331957
H         1.89182891572532   23.35924853627664   14.02888936142635
C         2.92965009357336   23.69350189619610   12.15939807734972
C         3.05965064184582   24.56453883885455   11.08337016497122
H         3.74385420432474   24.38072756008718   10.27287258847732
C         2.29580466885775   25.70998562823286   11.02498563595739
H         2.39857985700412   26.38093807822946   10.18753131156862
C         4.63655071606803   22.23728814443615   11.13235788323715
H         5.35230271302543   23.05462520752253   11.07070756475731
H         4.07400061815557   22.17395211849681   10.20300326329515
H         5.18463426256229   21.30605738337513   11.27016595371361
C         4.53833674244911   22.49303107230710   13.50325427033614
H         3.90267017594948   22.58390348143408   14.38013926503355
H         5.19698496931019   23.35926139577258   13.46483479194626
H         5.13872476036511   21.58904732410125   13.59574188282213
C         2.79958749172352   21.28770952250737   12.32410162806592
H         3.36228911439867   20.35793680034897   12.39464471057416
H         2.18982064564509   21.27119204492118   11.42220680503469
H         2.13824808797382   21.36461726345625   13.18319455484532
C        -3.52118873346504   26.13884979929114   15.64520335288324
C        -3.70108189488696   26.36675963264751   17.00600219684317
H        -2.92414523980836   26.08248498158567   17.69780788626156
C        -4.83808689018554   27.00171481233555   17.45692945320336
H        -4.92353184130382   27.19135749335130   18.51508581415604
C        -5.81797234559567   27.41701532690624   16.56091733850904
C        -5.69948793974376   27.07268379038631   15.22112806724226
H        -6.45309030973098   27.31910780064469   14.49421436467855
C        -4.56182485736718   26.43586278370952   14.76925148606507
H        -4.46423735392183   26.19205972842056   13.71878703185036
C        -7.71976869832722   28.84396776952687   15.96210591484244
H        -7.03617925133276   29.41952931225362   15.33714030194660
H        -8.47499960847750   29.50988481596811   16.37578720694764
H        -8.22223231806178   28.08119175289069   15.37199779135881
C        -6.41625822206475   29.35497802305370   17.87179879461606
H        -5.94210853513984   28.99374254426113   18.77899398023594
H        -7.22523092867015   30.02827882540381   18.14729796520031
H        -5.67986568739526   29.88472911377605   17.26305435658174
C        -7.83935758788803   27.38726673806459   17.87368657454975
H        -8.23341282641578   26.57686439756438   17.26188091156897
H        -8.66799595782495   27.97810992378317   18.26181182138502
H        -7.29160608520982   26.95433521587347   18.70815717120357
C        -3.84044968139686   29.71527159815517   14.68688841806805

