55
CSD_code = UCIFOC | q = 0 | S = 0 | Stoichiometry = C28H20N6Zn | MND = 6
Zn       -5.05114008096955   -1.36909724264042   -6.57334357742434
N        -6.34807620122547   -1.38698766999933   -5.21962958080862
C        -7.44893297324370   -2.15338252024503   -5.20917413061379
C        -8.16190050338708   -1.90573555925709   -4.02388541594167
H        -9.08486156266923   -2.36137499060052   -3.71760763338126
C        -7.43640148548867   -0.95527962073611   -3.31741855424819
H        -7.69369482150999   -0.53558957258044   -2.36297040032845
C        -6.30658782750708   -0.65410135508584   -4.09681878778249
N        -6.61880209676708   -2.91445015223101   -7.26136509283148
C        -7.61362360184957   -3.00242313302411   -6.35712988719360
C        -8.70233358197771   -3.85962361150789   -6.55583409325427
H        -9.48308936527526   -3.90922963227667   -5.81317860569633
C        -8.75430908367892   -4.62322543917318   -7.70236124740993
H        -9.58447183505139   -5.29231082060671   -7.87956052187582
C        -7.72238050598236   -4.52122740138070   -8.62849361243921
H        -7.72872898085524   -5.10244100423322   -9.53691865631453
C        -6.67976658813729   -3.65095768073267   -8.35475620171674
H        -5.85318902756627   -3.53741879164701   -9.04417730307922
N        -4.31077563070669    0.15815169109484   -5.01303222935773
C        -5.16375040787567    0.20809330272273   -3.97120466965957
C        -4.91879128947253    1.03787388723097   -2.87057392990489
H        -5.62146715632278    1.05747636520251   -2.05241884604209
C        -3.77915635634363    1.81311320406052   -2.85508609678136
H        -3.56618277266617    2.46013457814469   -2.01595812324959
C        -2.90541904274431    1.74945153025158   -3.93469362389423
H        -2.00287276259062    2.33932862631683   -3.95701618930680
C        -3.22319049517214    0.90546983890387   -4.98638974130419
H        -2.57480465753448    0.82205931837477   -5.84892307842777
N        -3.75420164053420   -1.38698570595905   -7.92705552619374
C        -2.65334278672665   -2.15337763259163   -7.93750846758685
C        -1.94037269044594   -1.90572809943356   -9.12279510595141
H        -1.01741002424134   -2.36136555575867   -9.42907116961843
C        -2.66587017418310   -0.95527040152834   -9.82926132918147
H        -2.40857506271625   -0.53557864214568  -10.78370823188652
C        -3.79568919003145   -0.65409919099073   -9.04986616117015
N        -3.48347595488407   -2.91444702658104   -5.88531920510715
C        -2.48865312653314   -3.00241874981330   -6.78955293915940
C        -1.39994194569368   -3.85961747130899   -6.59084703560809
H        -0.61918423001964   -3.90922086311294   -7.33350066714711
C        -1.34796722763988   -4.62321945207403   -5.44432004285374
H        -0.51780418036279   -5.29230434849624   -5.26711973128979
C        -2.37989770614586   -4.52122344626136   -4.51818949363692
H        -2.37355102921566   -5.10243968919644   -3.60976590354224
C        -3.42251205983814   -3.65095451403187   -4.79192796435945
H        -4.24909283280751   -3.53741997335307   -4.10251001992279
N        -5.79150358190036    0.15815082890769   -8.13365557472490
C        -4.93852908600486    0.20809185640864   -9.17548297857486
C        -5.18348459683551    1.03787736123546  -10.27611091082196
H        -4.48080503235178    1.05748500705208  -11.09426287298630
C        -6.32311751936594    1.81311928545748  -10.29159725884064
H        -6.53608989693283    2.46014269994498  -11.13072391167837
C        -7.19685611996871    1.74945597294583   -9.21199101075334
H        -8.09940527001589    2.33932928746007   -9.18967132724265
C        -6.87908608017255    0.90547260238753   -8.16029588871997
H        -7.52748025986213    0.82204971648011   -7.29776944118165

