63
CSD_code = UCIGAP | q = 0 | S = 0 | Stoichiometry = C32H16N10S4Zn | MND = 6
Zn        7.57253587951130    6.18420659997322    2.43566398675734
S         7.03886146417334    5.75835467627596   -3.11410569586835
S         5.32214266445895    8.56364073903945   -2.10310622050717
S         4.12975283489965    5.94286407974665    6.84055815182041
S         7.23128125548858    6.91630754184598    7.97065046095739
N         8.59047459087954    4.56724934986248    1.29406689431850
N         7.57056428792664    6.83941220977448    0.65334021272286
N         6.56916399354423    8.23307841473461    2.56042150583805
N         5.47093570594451    5.30934685058121    2.23780074421282
N         7.06673508932128    5.71598797861240    4.20538058851210
N         9.35553414398463    6.74691253722258    3.64531771571435
N         5.79012192279685    3.41789083066128   -2.14097423999395
N         3.15727867412375    6.89670720364897   -1.38236692136222
N         3.40003987667414    8.41636978631146    5.68519933721110
N         7.82159897557647    9.50158098486703    6.99439956701587
C         9.19140000853342    3.47203195397055    1.72597909320728
H         9.20754800705986    3.33657580183179    2.79882487797631
C         9.76428439442444    2.53843090782948    0.87806673742528
H        10.23268788836635    1.65291200800778    1.27628954997443
C         9.71773663787823    2.77271334931697   -0.48936571997530
H        10.15778324394667    2.07242999207880   -1.18323669952371
C         9.10095931373911    3.91841856488451   -0.95191040322470
H         9.06312335702340    4.13671769358525   -2.00687198698306
C         8.53326297467001    4.79931967191695   -0.03048408559088
C         7.82244245429411    6.00982385180477   -0.37318445908931
C         7.14685790709584    6.49026818771322   -1.50049891614911
C         6.44920350988882    7.64016426712464   -1.08799287662298
C         6.73411100073689    7.81487380161737    0.27065811156716
C         6.24019670751335    8.66787894929016    1.33087843681968
C         5.46862902635080    9.81213910778068    1.13954214580223
H         5.22817123932464   10.14463327332487    0.14229240164994
C         5.01923055745057   10.50773252077996    2.24747286703575
H         4.40793992180408   11.38930171191219    2.12578147128248
C         5.36980648914832   10.05929597362164    3.51153110581530
H         5.04065440218899   10.56501632336263    4.40343221166993
C         6.15439408137729    8.92131157296065    3.60923027803412
H         6.46265910514222    8.55253758681372    4.57737359528509
C         6.28453773414569    4.36206434757841   -2.56372019259317
C         4.01268938918703    7.59179426140371   -1.69780229539138
C         4.74637653788357    5.05781912588970    1.16188072937289
H         5.25803272824465    5.12282352903542    0.21209649199996
C         3.40241531863569    4.72345957917839    1.20918921409419
H         2.85728064183542    4.55780358024999    0.29530222360961
C         2.79490501276219    4.62529875476835    2.45146702421022
H         1.75006853304488    4.36638633271496    2.53503533388740
C         3.54812333632118    4.85927370913576    3.58786953402341
H         3.10910640261196    4.77238373418715    4.56891065820264
C         4.88887508297999    5.21095456749646    3.44625346118887
C         5.78050326235865    5.53765351159225    4.53913555688438
C         5.62730059782337    5.87313979797833    5.88898250770542
C         6.89245676020451    6.28152074015643    6.34779392051766
C         7.76198791777157    6.18347581404894    5.25573267086166
C         9.10674476870461    6.62318782017960    4.96226735730340
C        10.07554048486725    6.92411367507085    5.92050858680348
H         9.86092971132718    6.79556685148136    6.96909235215990
C        11.31101909253635    7.37805815769594    5.50268087117554
H        12.07441962786216    7.62402579696504    6.22534970383446
C        11.55477141761166    7.51049382139257    4.14254968478540
H        12.50481752570966    7.86691818004560    3.77856075080198
C        10.54443360168557    7.17399938859668    3.25658922664904
H        10.68855545991642    7.25504401723238    2.18783734015349
C         3.66544033036271    7.41342908640393    6.17330764283411
C         7.57696513634505    8.46517496482110    7.42017582119439

