63
CSD_code = UCIGUJ | q = 0 | S = 0 | Stoichiometry = C32H16FeN10S4 | MND = 6
Fe        2.75239343310874    7.02262332474025    3.47165061318644
S         2.13800288581333    4.20196133047949    8.27797486471515
S         3.52644485047116    7.31617897457810    9.02568309777238
S         3.50867149231835    7.20066501212591   -2.08581442816942
S         0.41051298831502    8.56305501385323   -1.39069809326505
N         1.93848702568751    5.16216743295186    3.45819425859282
N         2.88640692942302    6.55481393061232    5.20496472376859
N         3.61032996331278    8.66020889059686    4.27125713150120
N         4.47827163328745    6.34666418454554    2.68415584046927
N         2.54950548172601    7.45274225737557    1.73548864398335
N         0.92677686870579    7.90037822505965    3.47828291545689
N         0.11297610255482    5.72061819495288    9.53787412221227
N         1.81028920274261    9.54678809618331    8.77586097198311
N         3.62782502537677    4.39043058744303   -1.81174356885963
N        -1.54662053934497    6.65137111843965   -0.68138949909162
C         1.46909658975077    4.49799394945761    2.41150696403485
H         1.53534631566378    5.00397888429293    1.45885777446858
C         0.92032795060653    3.23137970473042    2.49838646346169
H         0.55497710182307    2.74144227906537    1.61128796460021
C         0.85269812057808    2.61723725630652    3.74357169423453
H         0.42877997066920    1.63022723789339    3.84713257151781
C         1.33841477780741    3.29014742319465    4.84621761166029
H         1.30723691391287    2.85115046972296    5.83084607900650
C         1.87943180739853    4.56459892950403    4.68098912078859
C         2.41831492807687    5.40340978994873    5.71249689739239
C         2.57408455025538    5.46160193334340    7.11096136747132
C         3.16003101913907    6.70294301352322    7.40379676867822
C         3.34096757464386    7.36790590576807    6.17390183069401
C         3.79385908991807    8.61273861723179    5.62174652450504
C         4.36590283205182    9.67900577353218    6.31572766584095
H         4.50148481112283    9.61119051835693    7.38264818421519
C         4.74434425806640   10.80968472730063    5.62194179070615
H         5.18366162544840   11.64753246030362    6.14078554723168
C         4.55003351607380   10.85135077486584    4.24569358463671
H         4.83159503563549   11.71702991735464    3.66879784581831
C         3.98389199949446    9.75440940099706    3.62310925287572
H         3.81678787028983    9.74377495555719    2.55519953967779
C         0.93103431302482    5.09107459246758    9.04003956364427
C         2.49553356502150    8.63750574981571    8.91002591697156
C         5.47847777587913    5.77296465527816    3.33807403069894
H         5.34706062835183    5.68441162697897    4.40734574597888
C         6.62390794312562    5.30722798555909    2.71954227314138
H         7.40462629482935    4.84520755964497    3.30131928930590
C         6.74132582836524    5.44742833641763    1.34106657960893
H         7.62106213949766    5.09467367098334    0.82546124757873
C         5.71370996729258    6.04517483434474    0.64131395075418
H         5.76967603293040    6.17097729051592   -0.42767762071489
C         4.58500976986490    6.48656828635858    1.33190911144320
C         3.42485944881091    7.11786053929384    0.77176025923647
C         2.83555792577335    7.44736614730728   -0.46527514887080
C         1.57715086285521    7.99757429238829   -0.18267009490625
C         1.43170155841667    7.98874046104788    1.21896574159191
C         0.48003905763372    8.28935055501421    2.25137788784027
C        -0.75884333198701    8.90816749439634    2.09001730675432
H        -1.08496892431350    9.20350209582964    1.10595129797939
C        -1.54993387816488    9.13164578705874    3.19860171570044
H        -2.51291186051295    9.60738250022798    3.09556004981430
C        -1.08460805733623    8.73704381988621    4.44731502941624
H        -1.66736038286680    8.89687255409637    5.33925384153981
C         0.15469602936745    8.12896559607827    4.53120219854638
H         0.54875448928545    7.81171716651358    5.48644934120900
C         3.57744743383634    5.52757004764278   -1.95025836091087
C        -0.76294663088711    7.42842585868286   -0.99241579114262

