137
CSD_code = UCIHIY | q = 0 | S = 0 | Stoichiometry = C66H56Cl2N6O2P2RuS2 | MND = 6
Ru        1.29936743191877   17.54151769422838   18.52075252753411
P        -0.84376704883543   18.19598037140291   19.00615043501429
C        -1.49288092093771   19.58048675397349   18.00807173406104
C        -1.39448996228398   19.46084824437085   16.62327758530247
H        -0.94239617041499   18.57449349316309   16.19622249042383
C        -1.84761007347116   20.47189294910860   15.79754525128827
H        -1.78593504071003   20.35711285255611   14.72535496998703
C        -2.36080884488210   21.63512645316843   16.34606690353398
H        -2.70604354543573   22.43108909782289   15.70265889442135
C        -2.41636677677046   21.78076197697011   17.72171611422448
H        -2.79650924740523   22.69538162891252   18.15376737142627
C        -1.99099475581121   20.75951323769973   18.55208751040922
H        -2.04592225944541   20.88662330672148   19.62364153790728
C        -2.08009854372689   16.86518259127195   18.70625722187572
C        -2.81007682134030   16.70965685820778   17.53374309597825
H        -2.75557773119910   17.45653180925392   16.75616523604943
C        -3.61613185459357   15.59810091923399   17.35604981730917
H        -4.17499304053673   15.48605192450555   16.43858361953831
C        -3.69897030244754   14.62666393157943   18.33799128276349
H        -4.31659349248066   13.75400295575654   18.18558149486550
C        -2.98478140162098   14.77983375927430   19.51542561572669
H        -3.04635727133832   14.03112240402411   20.29255801398649
C        -2.18499906246968   15.89106767401147   19.69914863629930
H        -1.63087039868059   16.00769948253426   20.62246516975503
C        -0.56907664716327   18.73272321093108   21.76318538516349
H         0.49382751257545   18.60020203042687   21.61386717350643
C        -1.05787008677694   19.01500602882357   23.02790019487963
H        -0.37417988621308   19.09743493118785   23.86013988813601
C        -2.41618977024984   19.19034354372403   23.22355487055277
H        -2.79822327348417   19.41079624631368   24.20961345247472
C        -3.28923069884765   19.07928686305543   22.15135106073069
H        -4.35074181280389   19.21390173041896   22.30168730792287
C        -2.80563710070052   18.79204476183959   20.89035060732607
H        -3.48542792906297   18.69645269637927   20.05375250232439
C        -1.43673780460226   18.62163687865865   20.68570948820906
P         2.12347638734584   19.51680369824723   17.68904861509288
C         1.59333324120157   20.11990223887508   16.04713030578572
C         1.50089574917713   19.17655959654022   15.02636474272986
H         1.68219522967301   18.13412473754488   15.25146527363765
C         1.14579273293667   19.55459601888024   13.74582047949237
H         1.08167180694643   18.81238777468557   12.96318169342581
C         0.86472021168324   20.88297025829320   13.47141838260205
H         0.58774181114796   21.18368930813585   12.47130643668184
C         0.92162021554002   21.82075223090535   14.48819997967847
H         0.68124247140463   22.85421809111232   14.28399171631842
C         1.28050695148464   21.44542587245950   15.77080463285835
H         1.30196955431022   22.18740030631549   16.55464993613614
C         2.02395362958536   21.03732780731416   18.69301087672071
C         1.10130301072188   21.09406277165380   19.72611533630107
H         0.48799144073526   20.22303337569591   19.91986106661811
C         0.98174496131860   22.23116396809161   20.50412773446893
H         0.26198100578448   22.26000347639059   21.30946242490956
C         1.79159127437409   23.32465131486964   20.25065689816755
H         1.70511669174150   24.21574584842308   20.85513922099089
C         2.72253711716791   23.27424630200064   19.22370954598826
H         3.35889312237006   24.12592266674617   19.03007232448781
C         2.84318841546951   22.13811922400671   18.44639905767243
H         3.57606835317491   22.09710443723481   17.65143324609365
C         5.88555210690792   18.80483145132299   16.18432636139489
H         6.31984520298709   18.46229423343431   15.25610606784316
C         6.68967250921840   19.02108051102575   17.29008208960640
H         7.75435957696614   18.84934147975225   17.22815410372317
C         6.12550059707966   19.46246729228998   18.47631557981352
H         6.74699635374931   19.63634240842407   19.34352492317004
C         3.94159291856278   19.43868731499349   17.45470248769848
C         4.51915281597076   19.00814149574028   16.26496957599110
H         3.90146031024847   18.83270050585794   15.39606889557546
C         4.76140552059163   19.66807402200595   18.56030108644395
H         4.32485661381870   20.00551527663695   19.49201981202116
S         0.36727548539011   16.31261302302007   16.58077183398914
C         0.25072656593868   15.13934788718906   17.80474476285435
N         0.74152083052833   15.55748306680607   18.95607409800522
N        -0.28826001252081   13.89801952313557   17.70787027831775
H        -0.20598279188344   13.40762770074446   18.59728902165546
C        -1.09895805104556   13.30574798959051   16.75836217211977
C        -1.34827850896714   13.85545479182810   15.50214006141820
H        -0.89361976732085   14.79039242896996   15.22236589531807
C        -2.18772597035074   13.21047560692165   14.61509610874456
H        -2.38235172768069   13.64254669271475   13.64620941694522
C        -2.77886750843888   12.00906394512246   14.96834004630611
C        -2.53232487797014   11.44168894073590   16.20894791467416
H        -2.99354725828412   10.50419274066541   16.47726078373923
C        -1.69740408229511   12.08878567537892   17.09504292737130
H        -1.50846025174291   11.65458656892063   18.06640013044410
Cl       -3.83281178080229   11.20663500586722   13.85457490684908
N         0.70314949243191   14.67812745112840   19.97614581675857
C         0.88917805947839   15.10805931548418   21.16760990420242
H         1.05730939725337   16.17249595164888   21.35943256273460
C         0.86918621805634   14.23459672354733   22.31041881406013
C         0.69435856446932   12.85538412907728   22.18851519698507
H         0.58160020927198   12.43024541007631   21.20281474999002
C         0.67258076574983   12.03576670830518   23.29836799660740
H         0.53846858978332   10.97350465794304   23.16469444332261
C         0.82533597895178   12.58289176660541   24.57076933281730
C         1.00114173827680   13.96386624223913   24.70238069261089
H         1.11982026880722   14.36966811811789   25.69464990326995
C         1.02363395824582   14.77387126533940   23.59277153201841
H         1.16258411782727   15.83928407043435   23.70461161212574
O         0.81938447694024   11.87467808390569   25.73057627101625
C         0.65446938179868   10.47876229402895   25.67134853980982
H        -0.30802643018444   10.20570946922544   25.22660991760429
H         0.68311543631669   10.13465316369063   26.70396030655720
H         1.46378682179856   10.00159298688106   25.10928830428508
S         2.63893664684538   17.96763763754008   20.54866240051109
C         3.75319029257885   17.10411850841640   19.60010161074858
N         3.26458307726946   16.76993788882484   18.41790870370064
N         4.14533755293761   16.19630070150450   17.57560941021232
C         3.80136721953598   15.96365635522145   16.36590255016026
H         2.78795770223652   16.17709326013031   16.01405657222278
C         4.73135977473936   15.43332518262505   15.40429297999958
C         4.29730367848919   15.13485481369335   14.11321567148591
H         3.25791614855771   15.28336935854416   13.85700678433088
C         5.16831151344931   14.64838711383713   13.15793426505706
H         4.79400549831736   14.42648536931548   12.17078818095077
C         6.50928336803946   14.45230480863616   13.47615925718002
C         6.95473781232630   14.75342973244650   14.76809267115842
H         7.99800646558914   14.59826352732372   14.99478838011315
C         6.08242762211330   15.23363978491631   15.71322410112100
H         6.42905691872952   15.47172013009605   16.70665078392415
O         7.45548773015984   13.98407151980553   12.61983794878329
C         7.07444127421647   13.65275345333870   11.30650368621539
H         6.32319363572469   12.85655673043258   11.29471214125290
H         7.98057839175464   13.29916889690156   10.81719298137673
H         6.68949688523766   14.52438465561651   10.76732935364877
N         5.02839816064088   16.77446435166032   19.91808848203903
H         5.46925694219270   16.29498538089203   19.13338934410649
C         5.86010172899867   17.14599554244440   20.95702509996198
C         7.21497574902831   16.82285269458276   20.84044881639993
H         7.56360490822709   16.30692821164300   19.95725914968769
C         8.11029567178922   17.15957566100558   21.83354435226892
H         9.15492083919178   16.90926982881545   21.73588976334294
C         7.65672469404652   17.82708847280343   22.96117897322615
C         6.31678510999358   18.15062594036834   23.09528986065622
H         5.97235748538631   18.66734331846849   23.97703583349416
C         5.42022748160853   17.81034559124538   22.10083272291501
H         4.37949615608281   18.06365021990284   22.21136543948796
Cl        8.77593324682313   18.25563735468439   24.20929010170945

