69
CSD_code = UCIKUO | q = 1 | S = 0 | Stoichiometry = C35H30NP2Pd(1+) | MND = 5
Pd       -1.36654340805620   11.95079051300965    5.00089146220120
P         0.67213345681156   12.56323759561245    4.24307278036270
P        -0.36236320322482   10.70212186640046    6.61738043519644
N         1.92606546518965   11.42579814895492    4.39215822913282
C         0.30112794251671   12.06131357053757    7.63048419711067
C         1.55472746752153   12.03432779480115    8.23019200942558
H         2.17379265607781   11.15201398575401    8.14501703789669
C         2.00261764825846   13.14099829946794    8.93113653677446
H         2.97669181351123   13.12167229849020    9.39552752773490
C         1.20532953063884   14.26825345222323    9.03984288362948
H         1.55977514572594   15.12704748374312    9.58837525369672
C        -0.04830035445111   14.29756292430227    8.44786373332428
H        -0.66791878281872   15.17655454666558    8.53976577744022
C        -0.49806146388616   13.20147206699310    7.73628288638985
H        -1.49124824443815   13.20884706726359    7.27002648920543
C         0.65365514407889   12.81798496174004    2.44749968113432
C         1.30931988051000   14.07530905244787    5.00908709600319
C         2.62386247913360   14.25870255088373    5.41921897829556
H         3.35529909905776   13.47633746369244    5.27536875881130
C         1.98586142573841   10.27941815618593    5.16605267724982
C         3.06843701209048   11.44597839649833    3.59460145657904
H         3.21920299962845   12.25101099399850    2.89985451823927
C        -0.08054537970829   11.88659191248739    0.35907546252278
H        -0.57677884298498   11.10859242501322   -0.20092321254299
C         0.47279357650221   12.97474054715189   -0.30199272921779
H         0.40482537445089   13.03840667274199   -1.37694506802760
C         1.10476962440185   13.98245155639076    0.40834008130295
H         1.52606835271843   14.82792123110673   -0.11357459385720
C        -1.27287869115077    9.60934612956028    7.73868669675955
C         2.98813476627686   15.45209483241531    6.01883965164193
H         4.00852036328588   15.59967621021930    6.33797455252418
C         0.36212819841150   15.07576701760568    5.22181204916830
H        -0.66863090731641   14.89777751919208    4.92004257519851
C         1.19965715005995   13.91061135461315    1.78865566574855
H         1.68846117276355   14.69419834894485    2.35149104760337
C         0.00206295502596   11.81166265073417    1.73517975328297
H        -0.43156159917298   10.97282248326518    2.28525211909068
C         3.84423584726677   10.36850298522108    3.84335235003766
H         4.78103258014171   10.13024127148636    3.38150806112891
C        -3.39600804178706   11.44455773597043    5.31458046600295
C         1.44973267093902    8.57283032044529    6.74254396232081
H         0.78652260992743    8.15743847717588    7.48711836502297
C        -1.18782494557525    9.70923143956434    9.12251225281485
H        -0.55975402907589   10.46489492435016    9.57298989116588
C        -2.71737567871217    7.86736651255393    9.32575594245896
H        -3.28024042959917    7.18842718122477    9.94748606000452
C        -2.80505529556235    7.77100826904040    7.94454370511119
H        -3.43366453247076    7.01875265746161    7.49295588097351
C        -2.08862050077226    8.64481621009699    7.14999520905146
H        -2.14534859398937    8.59102597379323    6.06769037396709
C        -1.91430592718952    8.83336121345512    9.91092528053634
H        -1.85271145037594    8.90511285327013   10.98607354397817
C         0.73581523492195   16.26844656605207    5.80901075612715
H         0.00739223714155   17.04982495952819    5.96419841031508
C         2.05132778019302   16.45517557775463    6.20728742951117
H         2.34502099590246   17.38408366676333    6.67118635123870
C        -3.33084247873822   12.75251671745528    4.80554859762406
H        -3.61209237586931   13.59650847709319    5.43693264233043
C        -2.64036199777885   12.97465620752335    3.60648353464474
C         3.18041828594216    9.59415176563741    4.84374905507149
C         3.49693011614658    8.39536874409418    5.47792099922347
H         4.40917874767243    7.87565240367548    5.23167239326528
C         2.62069079412183    7.89450610002020    6.41766875843666
H         2.84176140061984    6.96522711551813    6.91905317862119
C         1.11362265836841    9.78013958026409    6.13756630000164
H        -2.52749673392080   13.98971647984592    3.23794478952906
H        -2.69798232130573   12.21508319468276    2.82070047815842
H        -3.86691608958705   11.27607005697789    6.27893190237035
H        -3.49467036001047   10.61369028102433    4.60669862184562

