68
CSD_code = UCIMOJ | q = 0 | S = 0 | Stoichiometry = C25H32CoN5O5 | MND = 6
Co       -0.03548486709365   -1.15693932846211   -3.53191990034657
O         0.94416559685534   -1.32302436774185   -6.16216625759975
O         1.28262314287462   -2.03029851544473   -1.11018765799313
H         0.37791006353348   -1.59300513102650   -0.85287976327420
O        -0.94616479339031   -0.84556993522952   -0.90409039547576
O        -1.35954344975266   -0.34132873905917   -5.96007514788652
H        -0.41627708434823   -0.74116456679570   -6.20913284151570
O         1.73676984641130   -5.29094452846873   -4.06897648368799
N         1.16121550600877   -1.61546426705061   -4.91638325738085
N         1.31540065343826   -1.92963956184244   -2.46608244563912
N        -1.22885573088300   -0.70094894689629   -2.15439176300539
N        -1.40724402240932   -0.45331155193391   -4.60751587800448
N         0.86395798926754    0.71704560754816   -3.37764066363576
C         2.24609376762280   -2.21752832759403   -4.53368093082021
C         2.32582564122807   -2.41030348909477   -3.10907854730221
C        -2.34716062399033   -0.16193426896310   -2.54613097007004
C        -2.44776826287940   -0.02429369610710   -3.97254191940441
C         3.30680833844728   -2.68928889694810   -5.47283018793148
H         3.01888637833581   -2.42820461728621   -6.48893913166956
H         3.40800445396725   -3.77012570943736   -5.38835305957376
H         4.26728451773413   -2.23036255111996   -5.24316760979754
C         3.46623809034894   -3.12075257513383   -2.46828079457120
H         3.38018096377081   -3.06019849011415   -1.38686036296950
H         4.41566900879927   -2.69715130428969   -2.78839121553387
H         3.43361185561373   -4.16523814568920   -2.77636673612385
C        -3.41461957338491    0.29358281898565   -1.60309703049144
H        -3.08281408590291    0.09675440096693   -0.58603944199537
H        -4.34308249983546   -0.24540909555338   -1.78538874225456
H        -3.60735549560430    1.35949362416291   -1.71744841493108
C        -3.63823467282176    0.58223082825826   -4.63741720407056
H        -4.53916618874850    0.04005850185336   -4.35681280421630
H        -3.51300101064030    0.54295212065907   -5.71616636162720
H        -3.75647555791434    1.61952456137048   -4.32736831613930
C         1.16707454655064    1.42541799448413   -4.46350691817151
H         0.93456642239206    0.98362257272871   -5.42276214654218
C         1.76451076322331    2.67273508659351   -4.40517217241890
H         1.98755694251270    3.20324960256696   -5.31722027502735
C         2.06577039100223    3.21540702315209   -3.16679489134312
H         2.53211697788162    4.18579201265014   -3.08485751979052
C         1.75235414605663    2.47850564393208   -2.03640442522884
H         1.96538580433114    2.85348845746728   -1.04796299032387
C         1.15428771760222    1.23938836124642   -2.18779188364190
H         0.89399041577628    0.65546302311160   -1.31555905058976
C        -0.84295031520595   -2.92939242458372   -3.66746115982443
C        -1.12961317053703   -3.65437922718574   -2.59210031545387
H        -0.98658500545226   -3.28754662409380   -1.58680813011903
C        -1.55562342067115   -5.09684805147431   -2.67494032434481
H        -2.26564780730955   -5.24862721989810   -3.49291639874146
C        -0.27465355980529   -5.90710458442315   -2.98205849722389
H         0.36497947915578   -5.88190256890858   -2.09308626858183
C         0.52712880777982   -5.30755734650745   -4.11567756765109
C        -0.20337635254354   -4.77927531320330   -5.32517813817504
H         0.58085633872946   -4.44664186529311   -6.01576181115814
C        -1.10828694967792   -3.53969039447342   -5.01963187787110
H        -0.97087126395571   -2.83164661906347   -5.83373095752250
H        -2.15863404068899   -3.84866524467089   -5.04623267231594
C        -0.54700838260960   -7.33726344202741   -3.33267731207646
H        -0.33904052791281   -8.05446706003550   -2.55068615151599
C        -1.02175536794095   -7.78655252656461   -4.49660108158943
H        -1.20539464288244   -8.85096133316933   -4.58194348174313
C        -1.37633940874112   -7.03327174573201   -5.67968657738858
H        -1.98976128363610   -7.58990299094773   -6.37922261739759
C        -1.04294773029092   -5.79083320817230   -6.03446491746152
H        -1.43820033153622   -5.41143246988887   -6.96947039677154
C        -2.19361053480558   -5.57099785290109   -1.37493841847608
H        -3.07746878766979   -4.97591517835300   -1.15574594699113
H        -1.49723940316639   -5.46834550618145   -0.54527893361386
H        -2.49016836061071   -6.61506083670322   -1.45366553597740

