21
CSD_code = UCISAA | q = 0 | S = 0 | Stoichiometry = C4H10Cl2N2NiO2 | MND = 6
Ni        0.00006059860337    0.00009381075279   -0.00008855662114
Cl        1.26705761743371   -1.70256405421158    0.57146055333271
N         1.14312861284444    1.08525864519054    0.71953460380200
O         1.12480889451023    0.57510965194323   -2.15357743622130
C         1.98608983733648    1.81043495456677    1.00067350912052
C         3.03029151959391    2.71419636546598    1.36374244685803
H         3.22654766579306    2.64180410516835    2.43317549144453
H         2.73330342744055    3.73275589095323    1.11482263643551
H         3.93369782186450    2.45391394243186    0.81270209154445
H         0.47999800147052    1.28486968399801   -2.29257155000105
H         0.92870903408355   -0.12211885846582   -2.78504555842148
Cl       -1.26704612113963    1.70269227908905   -0.57149254921137
N        -1.14287690166725   -1.08525682035563   -0.71987640192160
C        -1.98647894259196   -1.80976963466990   -1.00080187033347
C        -3.03085209765326   -2.71352390791441   -1.36343835752058
H        -3.22748507451837   -2.64111921917180   -2.43279645679719
H        -2.73388470660127   -3.73211032936466   -1.11461792274048
H        -3.93401023964084   -2.45310318229539   -0.81205071814857
O        -1.12420615324173   -0.57582592490833    2.15341812804473
H        -0.47981059376660   -1.28624066026756    2.29126584018215
H        -0.92704220012988    0.12050326208456    2.78556207716395

