51
CSD_code = UCISIL | q = 0 | S = 0 | Stoichiometry = C21H28IrN | MND = 7
Ir       16.93732200427470    7.19685088970588    0.78864289162563
N        15.27477955208501    7.72795310355660    0.09073628637596
C        19.03170755564159    6.69088438684802    1.34948329430070
C        18.98497229577861    7.14864902428209   -0.00483385381012
C        18.25853938639638    6.17496841337877   -0.78754345765681
C        17.78885569609427    5.19043182629415    0.08639664250699
C        18.22928880141746    5.52474424584354    1.43065675016310
C        19.95302228343742    7.22794062374947    2.40247481234601
C        19.82117876121677    8.25348467584822   -0.56898319451004
C        18.14727132810034    6.19130151160454   -2.27863483343146
C        17.06645757059785    3.93258911234778   -0.27200968016230
C        18.11542443793240    4.61057281219630    2.61115696905234
C        16.20680725832387    8.39029544805036    2.28478427463333
C        16.80051264709937    8.64273008722228    3.52218495179591
C        16.18943853950817    9.45061487779425    4.46545282299280
C        14.96214200587151   10.03083112522491    4.20213329800076
C        14.32685565723666    9.80683835867591    2.98875900567668
C        14.95435854859283    8.99468030250370    2.05270570846747
C        14.36859888833170    8.68203612627235    0.70599223963433
C        14.23208131326344    9.93733679165085   -0.17886642136908
C        13.01804655236883   10.79662138163260    0.15932012532713
C        13.07448221307462   11.44883132780481    1.53827328169466
C        12.99856541099989   10.44598439827315    2.69551117995317
H        14.91142152331200    7.43182396917278   -0.81695401473787
H        19.70392180206441    6.82608221028741    3.38099178198846
H        20.98051752467866    6.94037375700623    2.16978031207747
H        19.90986579772578    8.31428977099671    2.45180608038169
H        19.36646854453315    8.67845981568199   -1.46152137189197
H        19.95864021064199    9.04785029764318    0.16125564438755
H        20.80621114945370    7.86796847683044   -0.84200918633257
H        19.05809862197641    5.79145445851611   -2.72932396859841
H        17.30899611520559    5.58622116450449   -2.61783486820084
H        18.00785900589715    7.20550705591528   -2.64912297542104
H        17.76453220143479    3.09288766792838   -0.28381614162912
H        16.28650056501225    3.70863450546384    0.45402177888101
H        16.60781995121696    4.00660193403032   -1.25566134720889
H        18.14571527158117    5.17145175266400    3.54240237684604
H        17.18371778707535    4.04983847678140    2.58382544901007
H        18.94173541984157    3.89608256160950    2.61276093655282
H        17.75694127047710    8.20418569443675    3.76357301912028
H        16.67297741068933    9.62948987451578    5.41642432420253
H        14.49066168430119   10.65930563951435    4.94544041915506
H        13.36954284512833    8.22429176478445    0.80955695545338
H        15.14889109209222   10.52176226653286   -0.08233098247787
H        14.14863448969998    9.61413343318257   -1.22090679174581
H        12.93697215208005   11.58530202771255   -0.59388233450353
H        12.11424317611398   10.18468784145932    0.09031709632892
H        13.99418099288303   12.03009956233794    1.63009440763153
H        12.23275166888696   12.14175193794895    1.61926226977750
H        12.25945428214230    9.67674315579547    2.45467821136024
H        12.65471873620986   10.96644807598789    3.59207982598484

