47
CSD_code = UCITIJ | q = 0 | S = 0 | Stoichiometry = C18H16CdF10N2 | MND = 4
Cd       -2.07874591293883    2.48722156896176    3.88487261674225
C        -1.23708203100728    1.53445061014597    5.63177847283475
C        -0.01008572964978    1.72777410712376    6.23740380709690
C         0.42791431858617    0.99561491822722    7.33423750993516
C        -0.40639130398926    0.01150028784923    7.85683001616834
C        -1.65608823102449   -0.21762981271545    7.28575230000104
C        -2.03132732556205    0.54951371293536    6.19120487073796
F         0.77829379751997    2.71083321117025    5.73026365924162
F         1.62303461355097    1.22430230480863    7.89694843368740
F        -0.01271983400558   -0.70614035520401    8.91553329187387
F        -2.46377756185147   -1.15356390478349    7.80196039522416
F        -3.25685936858007    0.37020340224150    5.61968955692193
N        -3.07257830842290    4.42941489965772    4.99728200436617
C        -2.79574297777040    5.59320732407163    4.15472062992583
C        -2.50763664342854    4.60770228706273    6.33191573262002
C        -4.51269240350308    4.20959520240837    5.11624876237483
H        -3.49535993583788    5.57732943910179    3.31611458032631
H        -2.95925232689685    6.52890189476045    4.71284374746829
H        -4.95176360625683    4.06403212511867    4.13046063277386
H        -1.42520424760763    4.70818248026229    6.27779637606617
H        -2.92208530332617    5.49833896104453    6.82492215088730
H        -2.73723074003926    3.73423758236439    6.94176637250767
H        -4.69195332830331    3.31136331811857    5.70857509222974
H        -5.01097146314914    5.05814915324633    5.60484564539216
C        -2.92042099332868    1.53448717619717    2.13796268251671
C        -4.14758253765637    1.72746264647305    1.53256221271638
C        -4.58549166401321    0.99530601565085    0.43568941414696
C        -3.75091503930891    0.01156934054561   -0.08718185019048
C        -2.50104520237565   -0.21719643444432    0.48366327838880
C        -2.12591364245419    0.54991736521946    1.57826659729452
F        -0.90020881737771    0.37098700741983    2.14954591312461
F        -1.69309218696289   -1.15275384853861   -0.03281834787225
F        -4.14449491891534   -0.70605465730891   -1.14593079376750
F        -5.78078603558555    1.22364011448025   -0.12679448639913
F        -4.93624244746644    2.71014455112410    2.03998730894071
C        -1.36135479463625    5.59313054725193    3.61489195833176
N        -1.08474251809522    4.42925766577799    2.77237193069458
C        -1.64968314883492    4.60757392430073    1.43774226763221
H        -2.73210531571436    4.70817327300503    1.49187360660925
H        -1.23513783912310    5.49815505405675    0.94471716639460
H        -1.42019093475238    3.73407462328946    0.82790252569207
C         0.35534125654502    4.20924490586947    2.65339754960615
H         0.79441816962428    4.06365877240170    3.63918060556955
H         0.53445822562375    3.31096563441803    2.06110481680070
H         0.85372921718939    5.05770303808982    2.16474568658314
H        -0.66175448159233    5.57713216112625    4.45350967844349
H        -1.19767849702329    6.52878640560685    3.05674362139265

