75
CSD_code = UCIVOR | q = 0 | S = 0 | Stoichiometry = C30H24N18S2Zn | MND = 6
Zn        1.89549864625609   13.69297327987767    0.00090742522985
S         1.96752854918817   15.02185899158003   -4.29578942938270
N         2.51925792182266   14.35952605396380   -1.67495089510692
N         3.90312252894919   15.86177027459083    2.94116740164235
N         3.50949133876142   16.86332927747259    2.14564148768337
N         3.08452197363512   16.35825154809470    1.06989236076683
N         3.17781189247829   15.03486987341558    1.09631381738095
N         4.02516169720157   10.33968216292626    0.86805109920568
N         3.82055452532381   11.62728043748698    1.12233196350027
N         3.45077168580741   12.17565829927184    0.03678415710306
N         3.40851640912168   11.30529261172046   -0.95715887952526
C         2.30813144091369   14.64700088617335   -2.79060951522588
C         3.69357451593563   14.71967905618280    2.25985593759168
C         4.39841195700019   16.05902160657178    4.23823779767529
C         4.96222503377330   17.28791543010153    4.55898242784863
C         5.44949374773070   17.49510722599409    5.83590968731581
C         5.37329823142197   16.48562053357588    6.78227630467580
C         4.79882262528346   15.26783180904438    6.45565238881925
C         4.30530032740162   15.04448988226530    5.18289661518094
C         3.76184410757990   10.15641039434561   -0.44701273112505
C         4.40650618860734    9.42084365786965    1.85713106361510
C         4.10861082916717    9.70513636583928    3.18416625399525
C         4.47639361561063    8.80404997279211    4.16591755527380
C         5.13461918952784    7.63260582504164    3.82801906195784
C         5.43026474795264    7.35882714615722    2.50220239377678
C         5.07043744987468    8.25091655792812    1.50848343396453
H         3.92121613551538   13.72974075994657    2.58961685262580
H         5.00651292213816   18.05982080780657    3.80670135440810
H         5.88940520727977   18.44684163298832    6.09209506088586
H         5.75530877379239   16.65130861976536    7.77821098949324
H         4.72484915936875   14.48662176161202    7.19625699026122
H         3.82587803854130   14.10853259975526    4.93975453898176
H         3.80822321376666    9.22677377305101   -0.97026283259876
H         3.57780709089463   10.61242872829314    3.43037758544018
H         4.24018456817063    9.01883766700155    5.19635879794778
H         5.41802183775817    6.93030107066832    4.59709388969422
H         5.94573976144701    6.44795155909956    2.23826839064135
H         5.31373272052904    8.04452923203356    0.47731340407487
N         1.27380517090969   13.02545910636921    1.67709298026277
C         1.48757949655683   12.74288278766250    2.79352522383519
S         1.83207979606244   12.37267317773367    4.29896984207748
N         0.61219314002919   12.35160561324632   -1.09468640100525
N         0.70278535134729   11.02809702161253   -1.06518597267855
N         0.28341098301746   10.52172597753051   -2.14252935387844
N        -0.10348688034048   11.52250907983818   -2.94234034330993
C         0.10399621056779   12.66547673638127   -2.26192274690286
H        -0.12007547443879   13.65512245317760   -2.59497293240010
C        -0.59048727104265   11.32384790657131   -4.24233567009717
C        -1.15524005510420   10.09574482367218   -4.56442133966723
C        -1.63401892095595    9.88707424327748   -5.84431904355718
C        -1.54843819837173   10.89429575950650   -6.79229170583844
C        -0.97315252870730   12.11130621026357   -6.46420227685252
C        -0.48808045652687   12.33612067902811   -5.18845800276185
H        -0.00814214161570   13.27147494917162   -4.94392232705581
H        -0.89190583888872   12.89075677151742   -7.20590300695475
H        -1.92377477660070   10.72742468152181   -7.79056417640285
H        -2.07460590135778    8.93593905833311   -6.10157525987510
H        -1.20684753137774    9.32557160013457   -3.81082617182973
N         0.34093859905571   15.20874291670181   -0.03514604639001
N        -0.02978017524832   15.75681742838077   -1.12049001460919
N        -0.24080394735444   17.04308429937306   -0.86472199307221
C         0.01981472625981   17.22577339439853    0.45097619491800
N         0.37781199619782   16.07786693402776    0.96002823616008
H        -0.03183887973826   18.15444752789896    0.97544845136346
C        -0.62546096504785   17.96127332069717   -1.85311748226186
C        -0.32425296056192   17.68028094237246   -3.18012106224243
C        -0.69558881478132   18.58067722740837   -4.16116757238618
C        -1.36051598957787   19.74815111438909   -3.82260972674738
C        -1.65934767659835   20.01865692402424   -2.49683973916042
C        -1.29606922360612   19.12718700693273   -1.50382019487197
H        -1.54186418206407   19.33085937675666   -0.47270162269458
H        -2.18004046058686   20.92641098888042   -2.23240151439650
H        -1.64669786762216   20.44989724863860   -4.59116411453741
H        -0.45697243812801   18.36853052660797   -5.19160084568055
H         0.21162348068833   16.77609681376098   -3.42676647412177

