89
CSD_code = UCIVAG | q = 0 | S = 0 | Stoichiometry = C44H37Cl2N4OTa | MND = 6
C         9.31095011976755    3.34781411754000   19.53818190769459
C         9.50838451578962    2.86362840759676   20.85083180205768
C        10.55547113392502    2.68899154542371   21.78158399215619
H        11.55903943752766    3.05302478193627   21.67499493189654
C        10.04277912291658    1.95266801020117   22.82663265777775
H        10.56341458934155    1.61682274465221   23.70296357611235
C         8.68453351655660    1.66961838626601   22.52300732285018
C         7.77843626813025    0.80911329307328   23.14318382573566
C         6.57577222342156    0.41196033030440   22.55077841846146
C         5.68328583152850   -0.55495202525717   23.10210458280960
H         5.80378709175538   -1.01602334505720   24.06364918519550
C         4.69218375981416   -0.76695398764102   22.19283475973414
H         3.85032053619822   -1.42468780421506   22.28399689115004
C         4.96939165036783    0.06440452917094   21.06717662926945
C         4.24301554836214    0.12818636940509   19.87275040326283
C         4.63298956882916    0.90357889176018   18.77376586152847
C         4.04666543585521    0.88286151563129   17.47399138532610
H         3.19927977038552    0.29058187717937   17.18896342372030
C         4.77900760744964    1.72151956536554   16.68975986966471
H         4.63307211651676    1.94644106572676   15.65065515531989
C         5.82910017829045    2.25623508381902   17.49360654995058
C         6.86606849937290    3.05943271661927   17.00834771576669
C         7.97267501061905    3.42059887171354   17.77639793974284
C         9.22393000811486    3.96917623486709   17.38750813544226
H         9.46363897399539    4.32669714516947   16.40439408232625
C        10.05738882777063    3.91522293080901   18.48253816817959
H        11.08258428972953    4.22725736831983   18.53400302372562
C         8.17408504307614    0.18505787366909   24.43134446917616
C         8.78925388196089   -1.06797110708089   24.43226860901128
C         9.15896770449992   -1.63485931750020   25.64187219123671
H         9.63519820129345   -2.60537752722335   25.64689837670677
C         8.93123037080000   -0.98374087799499   26.84636913744940
C         8.32553740836727    0.26366823350292   26.82235329854504
H         8.14483191991527    0.78352214947593   27.75273789835339
C         7.94509021772917    0.86097264743258   25.62962755060031
C         9.04558084045436   -1.78268786468789   23.13964965477457
H         9.60328892018820   -1.14412121919241   22.45615330903531
H         8.10467837891090   -2.03998322761500   22.65442753551163
H         9.61065195711925   -2.69548290512018   23.31066830935434
C         9.35651627297504   -1.60755167417213   28.14134158053346
H        10.40704931548330   -1.38694421489253   28.33371347117740
H         9.24277933339217   -2.68879599398757   28.10599177681899
H         8.77227981874045   -1.21746911928432   28.97120580434547
C         7.29602423078935    2.20979408507118   25.61754075056849
H         7.12329044080631    2.56682116748674   26.62967480542327
H         6.34554044560371    2.17288461928716   25.08807815252782
H         7.92722354120532    2.92857075938056   25.09595905468230
C         6.86108215823507    3.42874532638097   15.56981767659013
C         7.40160671597042    2.55128717762163   14.62796206395547
C         7.39700193456303    2.91491084564330   13.29085462502494
H         7.81368193347559    2.23886846978539   12.55731267771545
C         6.86883920462681    4.12887568125583   12.87184753530557
C         6.34126837616446    4.98721882398773   13.82415322438743
H         5.92813191366488    5.93647773763260   13.51311672056460
C         6.33118397555059    4.65524078839429   15.17137102540205
C         7.97646089898624    1.23784825376530   15.06550930098673
H         8.76084291498797    1.39381876390618   15.80482408755784
H         8.39309920662614    0.69908596749581   14.21825299400335
H         7.20706183102336    0.62138003152827   15.52896133027655
C         6.89151904707818    4.50263463112817   11.42032708807444
H         6.22065090826454    5.33457196657885   11.22162091167738
H         6.59837094823264    3.65745345925199   10.80057567453685
H         7.89887096377920    4.79820292604765   11.12610214696167
C         5.76266085579320    5.59204181584378   16.19110796500912
H         6.53753261999571    5.90737466598529   16.88896497393731
H         4.98729552301533    5.09820563975534   16.77445169736668
H         5.33992942017600    6.47375160785446   15.71614733099966
C         3.02621088554421   -0.69876129088417   19.73577150314798
C         3.07642700202381   -2.08673470569642   19.85738491204934
H         4.02516371002245   -2.56878201510070   20.03859223610086
C         1.93553454263746   -2.84600156431623   19.72370283114624
H         1.96762057437377   -3.92061837355319   19.80952452867933
C         0.70334461393372   -2.23945449002803   19.46953637100065
C         0.64608726559796   -0.85550488137575   19.34367065976787
H        -0.28756057719642   -0.35238604487351   19.14753707895597
C         1.79963912258834   -0.10190916880906   19.47190487989104
H         1.74357102712099    0.97276390527558   19.37925397873888
C        -1.63058826482807   -2.53033363706611   19.10529911581459
H        -1.94300417745772   -1.84960562705904   19.90370898525893
H        -2.31498062619128   -3.37625238915834   19.06640348191650
H        -1.65438840661297   -2.00230070565877   18.14655187479829
N         8.37897182736648    2.27098619541327   21.33264427819123
N         6.10401677482976    0.80387056353950   21.31567834465372
N         5.71212898132632    1.75657567323293   18.77334896982390
N         8.04546513310431    3.08873727851685   19.10208415549998
O        -0.36084961294432   -3.07981276049838   19.36159668988218
Cl        5.49632109103514    4.55779793883052   19.62754603254051
Cl        5.91279746717352    3.46766297072609   22.54193830684073
Ta        6.52201642069657    2.69994344176436   20.47806180227176

