47
CSD_code = UCIVEH | q = 0 | S = 0 | Stoichiometry = C16H18FeN8O2S2 | MND = 6
Fe        3.81975394885439    7.38855338352424    0.00086870707314
N         2.33385233079059    8.04970638431556    0.96445617897049
C         1.77350235295286    8.42900871272948    1.92568394608907
S         0.97765110659269    8.92465087825594    3.20558730120948
O         2.63064351967794    5.49870583380696   -0.49115837079126
C         3.26244120944109    4.35264722754173   -1.04355762580044
N         4.73265859882588    5.68679224065592    3.69549800451909
C         3.84104142917334    5.92775136391067    2.67191590309861
C         2.50798079582350    5.54024390088090    2.82037204779368
C         2.12718415143273    4.96813599050266    4.00603022274169
C         3.06465552438267    4.76307684403732    5.03708928173082
C         4.36825087761450    5.12058915378627    4.86513157181928
N         5.94824214367932    6.09646235729069    3.34229720446736
C         5.77898473526808    6.58095686649175    2.13118298923053
N         4.51682801261330    6.51930293569470    1.67319035693688
H         1.85996337397812    5.70617501065690   -1.03385551870178
H         1.82836623473502    5.71940185979318    2.00622396606198
H         1.10165525593299    4.67386709473206    4.15914119259081
H         2.75372195005469    4.31808899517267    5.96782158958465
H         5.14701923021174    4.98838392361159    5.59830435664616
H         6.59422150279424    6.95918135400160    1.54734345198864
H         4.13831423276858    4.15032372343321   -0.43223345340236
H         2.58242191697752    3.49605995304647   -1.00944142790001
H         3.58904449639204    4.52743403152422   -2.07081217664610
N         5.30525028945127    6.72679163921978   -0.96310701940163
C         5.86532160175949    6.35250975653628   -1.92640595209028
S         6.66166714500957    5.86429150888553   -3.20884752837937
O         5.00745020224740    9.27958900313154    0.49647226564073
C         4.36894745883714   10.42994292399205    1.03218858305388
H         3.50256644038477   10.62955156174219    0.40660524540734
H         5.05054648141477   11.28545574229296    1.00288244497080
H         4.02680179458529   10.26193657314970    2.05546432075519
H         5.76917456030222    9.07443539681596    1.05255563039865
N         3.12397367845882    8.25859459886123   -1.67244847819540
C         3.80267980383773    8.85041040841761   -2.66909625715267
N         2.91443296203152    9.09025238292270   -3.69579344422022
C         3.28243569082541    9.65624615948146   -4.86439601483756
C         4.58634553670117   10.01468210555731   -5.03198774246551
C         5.52034834803854    9.81100449742774   -3.99752806085618
C         5.13588231340382    9.23922139962533   -2.81291295583958
H         5.81272316983080    9.06133109939653   -1.99616980146715
H         6.54616389989582   10.10605400620682   -4.14715247162161
H         4.90018586586317   10.45939186399478   -5.96187422160051
H         2.50610275816114    9.78752724182085   -5.60031260309254
N         1.69794288220054    8.67978041281235   -3.34657953886139
C         1.86350044130259    8.19576806788124   -2.13476682665681
H         1.04635774449673    7.81713163041579   -1.55386927279314

