42
CSD_code = UCIWOS | q = 0 | S = 0 | Stoichiometry = C14H15F3FeN2O6S | MND = 6
Fe        4.91299574730292    4.61332655798782    4.80610493927120
S         5.69350805355907    7.49089973572783    5.24394066466472
F         7.75404634312212    8.13950105814803    3.71554325120391
F         7.29329107498046    9.64542974643259    5.18800450794006
F         6.04084694515103    9.41816645501570    3.44880761277951
O         3.23322719587393    2.58236597382942    5.38183596069857
O         5.26023246885682    6.65847406934128    4.11644824370180
O         6.59090907512453    6.79672730019768    6.13222811710801
O         4.64036542828509    8.24552222981081    5.86119147097773
O         7.70419390088572    4.30422139170248    5.50099482803347
O         5.92218834250472    2.97613203657483    2.65698079734697
N         4.12215183961543    5.37709277616017    6.48170679088335
N         3.08079482112843    4.97180201970225    4.12459387986691
C         2.92702539232790    5.94656535652600    6.24150496256363
C         2.28304349717825    6.74854857163789    7.17915245777888
C         2.89454503711091    6.97140980058284    8.39872986392600
C         4.11512372655235    6.36273161791726    8.64849078698086
C         4.68915475176445    5.57578487417947    7.66368527544083
C         2.38344831086475    5.67113309542979    4.92939966615136
C         2.62048263378459    4.64887169340336    2.79285746836051
C         3.35249178133072    5.56174408603085    1.80461454569389
C         1.10769053846114    4.72285537936989    2.58898901794954
C         4.39221957768491    2.88744624024753    5.50269325548873
C         5.37216661511086    2.00567717787700    6.23663906403495
C         6.58790425509704    4.46198184649114    5.34334341786186
C         5.48164249670154    3.68083739435935    3.44534361234260
C         6.75791088181320    8.75190576788652    4.35620220480023
H         1.33501039652193    7.20260762606414    6.93782481611881
H         2.43251042877949    7.60738609899741    9.13797778558492
H         4.62629805723306    6.50493990297379    9.58676767721818
H         5.64577001355178    5.10292412493313    7.82116188375965
H         1.40266838638448    6.07173952791686    4.68692245477916
H         2.94615450696575    3.61595912690789    2.62609046957867
H         3.17934821355592    5.22292246027640    0.78710756285514
H         4.41880858202394    5.55770934672355    2.01375059431324
H         2.99614510167323    6.58356989031356    1.90838401220248
H         0.86377862324418    4.28659277598772    1.62408151073043
H         0.74945512687869    5.74975396702269    2.58942329799877
H         0.59163386166436    4.15619808674755    3.36082550990088
H         5.81513864024544    2.56136115285870    7.05776726403794
H         6.17036976890726    1.70964128974690    5.56124607398776
H         4.87030956019946    1.11864036996009    6.62144242308219

