107
CSD_code = UCIWIM | q = 0 | S = 0 | Stoichiometry = C39H54FeN4O9 | MND = 7
Fe        8.82175894002718    2.75629538444985   11.68016470561341
O        10.56931569482086    9.62941430150945   10.00468359589924
O         9.57585184360530    9.82979885804844   12.01655586059731
O        11.30110611764501    7.23471640504970   11.81147662274942
O         7.84256243149917    8.65465839002996   10.21746351846665
O         6.90099865025248    6.59903206516122   10.34351033240236
O         5.37256004105963    3.75009442699472   12.97843273868959
O         5.11865969301571    4.03703848087299   10.78061697821846
O         6.56237430323095    3.97152379068388    8.10794658318316
O         6.58391234447955    2.16886048801535    9.44691494604756
N         8.34467940163599    4.69981360177238   12.30878374787433
N         9.04936818556844    1.33383745619811   10.61785622406261
N        10.76157411073113    2.82947952011619   12.11314927817392
N         8.03269215213885    1.67418103436841   12.94893746189334
C         9.25586110425859    5.40106669728335   11.34505322422398
C         9.03399560596903    4.54550171292380   10.11485962985638
C         7.74234427928090    4.03421441414522   10.19899188628628
C         7.29219746786725    4.12104120272788   11.55660702969487
C        10.10947154485105    9.13706140970192   11.00225291351632
C        10.22040463640197    7.66113845111682   11.35590784964594
C         9.08603353999605    6.87272173906638   11.10830349833943
C         7.93894137356594    7.47614390047721   10.52029381675246
C         9.37593283963065   11.21268097398721   11.76595809068728
C         5.76330090407603    7.08177417095578    9.65995278247109
C         9.87459473093028    4.54855639910008    8.93065416998323
C        10.80832099293946    5.55830935504692    8.68674668036817
C        11.59394382450125    5.52843586443587    7.54990296463506
C        11.47353017967227    4.49494349261883    6.63653118194553
C        10.55664628156583    3.48162408287360    6.87068718960509
C         9.77053031605651    3.50541802448878    8.00432704190204
C         8.21379337102298    5.27423609251710   13.66712302642110
C         9.58367695251636    5.76593897671571   14.14377693879053
C         7.20862973208526    6.42871690359629   13.68262048779460
C         7.79088728315793    4.18507147786702   14.65634324026654
C         5.87395644185568    3.96498530298862   11.89252083546167
C         3.72681996208509    3.83944502629595   10.95448111912207
C         6.91034613677956    3.44073601794987    9.12600003557860
C         5.71083660646206    1.51407210061148    8.54059515255293
C         9.34672893302053    0.54081342495095    9.83211987251241
C         9.81080401319838   -0.45049063665741    8.88101312578891
C         8.89602774517586   -0.45520575708435    7.65009102250199
C         9.79099704886955   -1.82496014432175    9.56420263414443
C        11.24452070478390   -0.07154181126522    8.48131989634807
C        11.80616113527683    3.31124643189156   12.16944992322827
C        13.12534922434465    3.89426359877317   12.21470023953757
C        14.14376447149422    2.75083940184898   12.33581331040303
C        13.33793835043671    4.68837838088151   10.91786185569346
C        13.21708781629784    4.84480481777537   13.41575229910829
C         7.29998799852617    1.04619228283654   13.57953988661246
C         6.34471340474478    0.28903218449578   14.35961748713281
C         6.37019540175703    0.80204253433780   15.80503376411676
C         4.96117761679973    0.52318778838609   13.73680828036083
C         6.72363979270334   -1.19652232097469   14.30731108762116
H        10.28176103296414    5.30643071338205   11.71636436539604
H        10.30984156650667   11.67924033198123   11.44447681276568
H         9.02687928481093   11.64773231438824   12.69949834171873
H         8.62821498933364   11.32956237971973   10.97906900044664
H         5.97253221780040    8.07437332395404    9.25465453722554
H         4.92172253405993    7.14196394636926   10.35531159189564
H         5.53699574077852    6.37989201951862    8.85655479463980
H        10.89973250170947    6.38517487481459    9.36967552950944
H        12.30043374130840    6.32579660602948    7.37629504085599
H        12.08570221651862    4.47720612327385    5.74699722720992
H        10.45580695750648    2.67319146454419    6.15895150826911
H         9.07280600928844    2.70390315751539    8.19750724419703
H        10.30210044642170    4.95011187737966   14.10372987704551
H         9.49791149731466    6.09456749187169   15.17659356512718
H         9.95670444962665    6.60059588427042   13.56378480762249
H         7.54661561574096    7.23992404536577   13.04397106182833
H         7.10921270078237    6.80818752339828   14.69668706002859
H         6.23146984421099    6.09599324526342   13.34486778188653
H         6.82105637260012    3.77720597526929   14.40196884153462
H         7.73443059477276    4.61183905153018   15.65439091498258
H         8.52908855542340    3.38532061824159   14.66067658101324
H         3.51788294214224    2.79387015317642   11.19597850493009
H         3.26151945658121    4.11552961484496   10.01144764744948
H         3.35032625778023    4.46830800816429   11.76424833930298
H         4.75834509319282    2.04473277786710    8.48323310025672
H         5.56474684448214    0.50926107427240    8.92914769424746
H         6.15033016330371    1.48191534167115    7.54099451110869
H         9.25245860441438   -1.19030544164654    6.93199605386011
H         8.89192404693933    0.52086677295282    7.17133001000357
H         7.87682435108196   -0.70954641999251    7.93134131501929
H        10.41695265606578   -1.81790067289048   10.45329771296322
H        10.16605040030189   -2.58080213434167    8.87807044167801
H         8.77864257389910   -2.09255787958555    9.85786972013266
H        11.62709635105584   -0.78979360488389    7.75966426894754
H        11.89353366151360   -0.07174355842565    9.35397438471677
H        11.26789569325339    0.92104064644215    8.03747769253145
H        13.97438242831397    2.17737619773065   13.24499783991139
H        15.14924831030325    3.16336385856688   12.36742358716326
H        14.07023402289039    2.07977922366953   11.48241384314312
H        13.11253155167785    4.08482987570114   10.04078686436900
H        14.37345382521551    5.01491608584856   10.86399226958697
H        12.70195075327964    5.57075195002853   10.91461579845233
H        12.56932066881202    5.70462470075291   13.26008153838197
H        14.23925688605846    5.20304765168681   13.50865821123891
H        12.93918164021530    4.34207726316223   14.34011254085485
H         7.36463077241544    0.69882206234403   16.23292767106382
H         5.66943990534688    0.22919098674608   16.40787644126424
H         6.08506963743241    1.85002883548155   15.83847951457476
H         4.74276096932508    1.58820955396473   13.70552457584817
H         4.19971251295425    0.02232534148616   14.33011620362563
H         4.93022251808742    0.13258476132388   12.72177058323854
H         6.74133718500660   -1.55168797099100   13.27942520514891
H         5.99506959096172   -1.77964823029046   14.86575958339173
H         7.70674518152237   -1.35643796157207   14.74392178153311

