18
CSD_code = UCIZUC | q = 0 | S = 0 | Stoichiometry = C3H10Cl2N2Pt | MND = 4
Pt       -0.00732551384675    0.25732758720433    3.23750392338084
Cl       -1.47044777825360   -0.10713148438056    1.57648584785494
N         1.42006162842108    0.58508986964844    1.71105543973398
H         0.96524975240267    0.13553174319027    0.91161171086380
H         1.47026815942940    1.58342834822631    1.50815303018568
C         2.75551956593088    0.03933386694558    1.95304527883498
H         3.42384710788455    0.26824689691526    1.11213579578503
H         2.66967900919895   -1.04750244445668    2.03152182817904
C         3.37809494524180    0.59497835992683    3.23749957615413
H         3.29757478261633    1.68504590115239    3.23749979545349
H         4.43889271770317    0.34105361401551    3.23749870634437
Cl       -1.47046032690162   -0.10713273721025    4.89850542915886
N         1.42006526707304    0.58509058901684    4.76394682898008
H         0.96525390860560    0.13553269701355    5.56339094084893
H         1.47027212245085    1.58342912390040    4.96684894099518
C         2.75552234751175    0.03933384227538    4.52195497765477
H         3.42385110839481    0.26824673191157    5.36286363571868
H         2.66968119613697   -1.04750250529535    4.44347831387314

