18
CSD_code = UCOBAQ | q = 0 | S = 0 | Stoichiometry = C3H10Cl2N2Pd | MND = 4
Pd        0.06484609501263    0.30364439143983    3.22006856465258
Cl       -1.34085248746751   -0.22258763275954    1.58261480234115
N         1.47033186995972    0.75382049691584    1.69745720373104
H         0.98901847277127    0.32324214707325    0.90132814079293
H         1.55832551103519    1.75310494662846    1.50991216218346
C         2.78038448335614    0.14720428978294    1.93298548424903
H         3.46005136475367    0.34944005226468    1.09248306040641
H         2.64221488377888   -0.93751756564715    2.00709403481227
C         3.43015966709091    0.66955107168481    3.21999356118411
H         3.40344245443849    1.76309740386549    3.21999438917618
H         4.47716377069633    0.36315297451346    3.21998697387280
Cl       -1.34107077278195   -0.22266112094104    4.85728644350834
N         1.47038884668484    0.75385303546714    4.74256279525966
H         0.98906950643666    0.32327903452156    5.53868906674965
H         1.55838305166789    1.75313777346816    4.93009791495735
C         2.78041962373096    0.14720939433300    4.50701841491785
H         3.46009539000912    0.34943964202724    5.34751357983128
H         2.64222826882705   -0.93751033463859    4.43291340737376

