88
CSD_code = UCODAR | q = 0 | S = 0 | Stoichiometry = C24H54ClN2NbP2Si4 | MND = 5
Nb       -0.01787855377350    2.93842071059621    2.65357574312091
Cl        0.75579267345487    0.98576509511266    1.86444863500876
P         1.67584818077861    3.16832483341778    4.46142799038766
Si       -0.89294419274246    4.21770304431243    5.49439839195431
Si       -2.39959952148125    5.21378582230976    2.99887417633224
N        -1.20634976274301    4.26117719068519    3.80064013549948
C         1.01784884943722    4.36182855716579    5.66843428063629
C         3.12563309294604    3.99185402826249    3.72734251680110
C        -1.39255470363973    2.46737782720974    6.11144508549100
C        -1.66258484020409    5.55853661611870    6.60449624530909
C        -1.61829638209413    6.76636395835784    2.19592636565171
C        -3.89323535583438    5.75941671862017    4.05691001901190
C         2.35872295839425    1.83110300842880    5.56886539495141
C         2.56298271625591    0.54479748564830    4.77162098565400
C         3.03662023521220   -0.58354170829088    5.68390407512707
C         4.31629485419030   -0.18619310011554    6.41447982131894
C         4.09985285411106    1.09814731812813    7.20972473021641
C         3.65007164530302    2.22413942112181    6.28128273614225
H         1.37597025118462    4.12522717964238    6.67025124158759
H         1.36170754317196    5.35837774044892    5.40115572335240
H         3.70405885311651    4.51620103097477    4.48903875778192
H         3.74939084950049    3.21554374048681    3.27781196268538
H        -2.47214275433212    2.35319027810226    6.14272874891941
H        -0.99951779669629    1.71606886521550    5.42025901659316
H        -1.01248528948312    2.24769654549056    7.10469865934028
H        -1.21346083399209    5.55295174600312    7.59120245544417
H        -1.52558079567750    6.54586874150035    6.18043325048502
H        -2.72432877576780    5.39238236781228    6.72383602656199
H        -1.41719879443883    7.52654109903778    2.94421136513143
H        -0.67633211549461    6.50404725720475    1.72156285802998
H        -2.26856742839374    7.21218482691816    1.44903523620415
H        -3.61739479762604    6.57677822567454    4.70931550183315
H        -4.70923233855464    6.10218700669506    3.43023286601484
H        -4.26566867792467    4.95192890110517    4.67659301132865
H         1.57481860670337    1.65502019394428    6.31988437365310
H         1.62365180993796    0.25999706484871    4.28470590635687
H         3.30413507601176    0.71739651019712    3.98471709338238
H         2.25668517044886   -0.80409695347614    6.41715473432179
H         3.20783526915646   -1.48763640180291    5.09635068944718
H         4.62830719078765   -0.99081823305337    7.08374399773467
H         5.11497514155128   -0.02884620957563    5.68586700178960
H         3.33793824851490    0.92798323001391    7.97445201165215
H         5.02464218746454    1.38345695262087    7.71651300088336
H         4.43433512689981    2.40536031382541    5.54361953728956
H         3.50543651983984    3.14434742513669    6.85328489251918
P        -1.73317167454324    3.22184062814464    0.90257975808190
C        -1.11252801638787    4.34816378937907   -0.39796645842257
Si        0.79740331938378    4.49767015330262   -0.17066555653303
N         1.17013623117155    4.42835351326382    1.50647827110444
Si        2.48550694085522    5.16297251538768    2.33160930246574
C         1.95615998250353    6.82710603610730    3.12959451327631
H         1.87189062144718    7.59460594267211    2.36740679138414
H         0.98951055596754    6.73958643465990    3.61737157050338
H         2.68003793331539    7.17539469127993    3.86050651784558
C         4.01420174115074    5.49522957281815    1.23429002828224
H         3.82962991730187    6.34637341345138    0.59276113558426
H         4.89025221412469    5.71965391925186    1.83273839107485
H         4.24898321294852    4.64859102881008    0.59970101741062
C         1.56091676982213    3.00771752410981   -1.11050949245674
H         2.64528544408734    3.05614554626586   -1.09956292341737
H         1.26967955141165    2.07215131117582   -0.63630666255735
H         1.24478065738683    2.97020323921585   -2.14892745654635
C         1.31639925392223    6.12884126512616   -1.01081713285995
H         0.78044252272737    6.27810990968494   -1.94086542112027
H         1.13430869094939    6.98700315190388   -0.37549548385907
H         2.37277344496603    6.10597694842416   -1.24075146540895
H        -1.35083360598146    3.94167171947322   -1.38028790535961
H        -1.60660447419255    5.31184202713554   -0.29315670861084
C        -3.14957673196290    4.10068265461263    1.61490779607906
H        -3.69346466223629    4.65669927499391    0.85074366256638
H        -3.81771031025316    3.36593768191689    2.06724670366948
C        -2.41346018733267    1.77737324834627   -0.04759093940586
C        -2.76494298868776    0.66039028347124    0.93469849796406
C        -3.23927408748607   -0.58035620048700    0.18291442125953
C        -4.43671152714707   -0.24435190595219   -0.70240779541354
C        -4.08570779152262    0.87752354163521   -1.67576991726840
C        -3.62276884366822    2.11785992922305   -0.91421812381902
H        -1.58682171300208    1.43628418784298   -0.68878506242799
H        -4.43792104926300    2.47025687797025   -0.27811701743625
H        -3.37800881443067    2.91652018288818   -1.61845415336216
H        -3.28771427303784    0.54203382091464   -2.34238497920379
H        -4.95482946675025    1.12282139683912   -2.29054728829761
H        -4.75120217126305   -1.13160622749120   -1.25589190301587
H        -5.27350632954311    0.07171549125071   -0.07474693850890
H        -2.42323564058492   -0.95753204818322   -0.43758890775682
H        -3.50945678608373   -1.36518151785997    0.89243268399892
H        -1.88724427868143    0.41755907244927    1.54676424983727
H        -3.55980577486930    1.00381970248877    1.60461313179012

