65
CSD_code = UCODAT | q = 0 | S = 0 | Stoichiometry = C30H24Cl2O6P2Pd | MND = 4
Pd       11.30102177080309   11.30345584551714    0.00161073983368
Cl       13.08725576719556   11.72466873597570    1.31226166118333
P        10.93478136393093    9.48947637039695    1.27933967040015
O        11.36983380415292    6.86766105666960    0.45870009990754
O         6.13006098227147    8.22368241020081   -0.03713641936606
O        11.70795473769557   10.05547217834388    3.79054346786908
C        11.54735527259223    8.18207461921124    0.21253311309954
C        12.26961700693713    8.35890208737946   -0.94138357753488
H        12.57031237538358    9.31454501898279   -1.36407435720025
C        12.54296386915206    7.06238976506421   -1.42810330115266
H        13.08937294846668    6.80421685397828   -2.31154778855693
C        11.97028437876808    6.20306655321415   -0.53831722791873
H        11.93568536442473    5.13120725108261   -0.50450341061131
C         9.19730252270472    9.10700573358362    1.66963663385541
C         8.30023454536792    8.71129148370438    0.68058487678229
C         6.93160371631714    8.61072605186838    0.98834719253252
C         6.48324501737305    8.92850436760643    2.26409450662759
H         5.43642605020522    8.86347191131144    2.51405022935963
C         7.38578105089429    9.33596216785582    3.23230602900050
H         7.02684734380493    9.58322344622028    4.22005530567938
C         8.72967214055991    9.43711940463947    2.94178334745483
H         9.42175634971673    9.77778888848140    3.69600289435335
C         4.74809762163689    8.10432675079473    0.19339955828419
H         4.53058174756899    7.35143687278683    0.95785514149221
H         4.31969100972287    7.78769170741793   -0.75620606345203
H         4.30399795449061    9.06081605527450    0.48710980828243
C        11.84787391406138    9.16136365888427    2.78868507644613
C        12.58045830464812    9.72231074172683    4.74417789826917
H        12.60233402531227   10.33054014065183    5.62735469040890
C        13.29636018842181    8.62056522264934    4.38275929882644
H        14.06333462347468    8.13461261432035    4.94989723211467
C        12.83093508138698    8.25721479218323    3.10160418357231
H        13.16842615313094    7.43986639061339    2.49769360019937
Cl       11.72488600860726   13.08620079716106   -1.31332163571437
P         9.48960339043202   10.93483722004696   -1.27938052287218
O         6.86785573190577   11.36978949297681   -0.45849353946799
O         8.22381485346046    6.12999317446582    0.03703410604685
O        10.05539569501181   11.70813455805569   -3.79055059165339
C         8.18228769719522   11.54736656006657   -0.21246995625108
C         8.35922168973005   12.26969590153439    0.94135913853026
H         9.31489085784239   12.57037142818821    1.36392713146193
C         7.06276719658676   12.54312741976071    1.42814938869473
H         6.80466716415120   13.08960119168826    2.31155580382684
C         6.20337010427062   11.97040160811996    0.53849480809584
H         5.13151665485666   11.93581034582871    0.50479466205970
C         9.10721628688112    9.19731268675014   -1.66961007994183
C         8.71140625296835    8.30020022786670   -0.68061548250851
C         8.61080422742268    6.93158250002853   -0.98843346524849
C         8.92856374902290    6.48327574974129   -2.26419783929290
H         8.86350852966291    5.43646685916019   -2.51419533632891
C         9.33601676341659    7.38585620309526   -3.23237137352469
H         9.58325111908713    7.02695914305038   -4.22013972406202
C         9.43725560837938    8.72972331843193   -2.94179028038405
H         9.77785531196430    9.42182963066899   -3.69601562716392
C         8.10438443534992    4.74804237857114   -0.19356089586481
H         7.35140770133278    4.53060050561429   -0.95795384459308
H         7.78780976975680    4.31960369111937    0.75605167516632
H         9.06081714051006    4.30388293432481   -0.48738595081093
C         9.16130304623440   11.84791963258376   -2.78868190377899
C         9.72205093982898   12.58049477791737   -4.74425568894021
H        10.33021477391402   12.60239271984198   -5.62747423985460
C         8.62038038009278   13.29643971315509   -4.38269418244808
H         8.13439028910513   14.06345743920440   -4.94974730465998
C         8.25709923443849   12.83088832538200   -3.10157490472256
H         7.43982839398979   13.16838471701936   -2.49756645380709

