48
CSD_code = UCOFAU | q = 0 | S = 0 | Stoichiometry = C19H19NO8Ru | MND = 9
Ru        1.46996861741731    3.20762755209194    3.57648576756538
C         3.21372318657589    4.56963318813745    4.22921550615310
C         2.12097955433354    4.75462567518608    5.09350792179838
H         2.26461012979358    4.68001304724284    6.16561258050582
C         0.84829556488449    5.14092204014022    4.58735528089286
H         0.04464320431015    5.35022802246922    5.28518928446199
C         0.63821964239083    5.31937909444192    3.21067545770465
C         1.73585250555960    5.08548538340669    2.32780100565624
H         1.61631740231829    5.27036637597959    1.26750947822693
C         2.99912187970255    4.73280116196905    2.82903256887980
H         3.84366091819561    4.64993191452474    2.15121951129934
C         4.59039303827338    4.29467689852411    4.76065542612733
H         4.54552030518914    3.83857179647533    5.74672321323704
H         5.14211334265169    5.23260859631927    4.84481456092414
H         5.14488152760131    3.63704942631496    4.09382516385479
C        -0.68121095500966    5.84222082690322    2.69692286916674
H        -1.43440238983005    5.67686102559454    3.47495796156228
C        -1.14166714129530    5.12430398510303    1.42777784126453
H        -0.55128775877844    5.42572363439964    0.56571641865468
H        -2.18136446496267    5.36750866963797    1.22514219298383
H        -1.05546049070828    4.04672272564871    1.55348809545380
C        -0.55181013428955    7.35230362134564    2.46003759429602
H        -0.26987363952774    7.86572419861019    3.37706612218134
H        -1.50169521692435    7.75342308888572    2.11676963021951
H         0.20287732585442    7.55740224416520    1.70350303947035
C        -0.14689709095152    1.01278154313809    4.47446173796980
O         0.55715356248110    1.98262439246826    4.95054008227730
O        -0.54140622912732    0.05955569518967    5.10920226603074
C        -0.46421910372885    1.17784219343210    2.93969428617576
O        -1.13853897591834    0.37514301575519    2.33304014477041
O         0.06066522146562    2.23952377649129    2.42548585248414
N         2.51966283361204    1.49225902012435    3.22978836338245
C         2.37742787133064    0.82480608995772    2.08021350571051
H         2.04879641715731    1.39345095778569    1.21740388851325
C         2.59492266348409   -0.54402584414531    1.98341169238718
C         2.99467794199534   -1.25351027982527    3.11324893825529
H         3.13406200087993   -2.32217389642650    3.06319871760003
C         3.20840612963051   -0.53968633197831    4.28678062617013
C         2.95849875894595    0.82733875644659    4.30020932697318
H         3.09210964868265    1.38577011668684    5.22064133728980
C         2.36604867666556   -1.27898598703199    0.70493767078917
O         1.96421843507992   -0.48212902917416   -0.28344866772614
H         1.76095376198517   -1.00358935967471   -1.07665100622005
O         2.53864800540879   -2.46078959147776    0.57674435994776
C         3.67667187085774   -1.17952333733576    5.55008319778612
O         3.59084151967928   -2.50532982027159    5.51466255346737
H         3.86497391030318   -2.88994073935768    6.36271320233084
O         4.10081621635632   -0.56192553429778    6.49083343109721

