67
CSD_code = UCOGUQ | q = 0 | S = 0 | Stoichiometry = C22H40O2P2Pd | MND = 4
C         2.29392711647899    9.88489661733861    3.49690841586477
C         0.93261509658790    9.42439783107445    3.78633371385239
C         0.59477277509744    8.07186541156490    3.87867924588212
H         1.35680355693197    7.31848231666439    3.73914029567014
C        -0.70035139396658    7.68355599007380    4.16503676018102
H        -0.94070978788854    6.63168804065158    4.23557441196118
C        -1.68883609140209    8.63277555928172    4.36618209981916
H        -2.70001603629770    8.32396647651387    4.58889306916434
C        -1.36793715919715    9.97902065897532    4.29327714983896
H        -2.13015629266586   10.72574962568835    4.46396573974407
C        -0.07279394502879   10.37122913853861    4.01529911521691
H         0.18128273905530   11.43337383707745    3.98499914177782
C         3.19350819622659    9.13806872458351    2.86412481049646
H         2.96976433821645    8.14654002001319    2.48700596680424
H         4.20103351102867    9.48115128318017    2.67406363550098
C         2.05488958312123   14.26820357398430    5.04182178492622
C         1.97007412792099   15.72408769694489    5.50342861980768
H         1.01092164026147   16.14594487590137    5.21398051305418
H         2.78509590836723   16.30300611088582    5.07715992873467
H         2.04199880397514   15.75327489828101    6.58913824705614
C         4.62303243113759    9.84705323922245    6.12177974350784
H         4.90119214853997    9.58249402600982    7.14440717990891
H         4.28665086875448    8.93962588603821    5.61208586220720
C         5.78862866902959   10.46956155371378    5.36277280178801
H         5.42341152433039   10.85125632394161    4.40347146450484
H         6.57374829020421    9.73928213971974    5.17469464237954
H         6.21704177332635   11.29986479663192    5.92117684910650
C         3.68994427246648   12.35458820771319    7.27623003261970
H         4.44184150181532   12.95760468893995    6.75730228217108
H         2.80199453386984   12.98435984755355    7.38341180147195
C         4.19970940245982   11.92298726745111    8.64471711772014
H         3.47056896930334   11.30190348329646    9.15993986157873
H         4.38596005085609   12.80230987335811    9.25976681759832
H         5.13234208003788   11.36915329970807    8.56452144938327
C         1.91768726447513   10.06590087946964    7.03702929343011
H         1.61687225464207    9.23945883438601    6.38638309164478
H         2.35283024969683    9.63771834743553    7.94476932226896
C         0.71189554169521   10.94681212142996    7.35180370241029
H         0.90458727773512   11.57512248612172    8.21902346782472
H        -0.16680901241632   10.33881303645788    7.55705626277551
H         0.49457080276301   11.59761326046645    6.50280213161138
C         3.81455435460503   13.33611113143921    1.33033519138786
H         3.82530582785011   13.32079234464161    0.23691580322336
H         3.85614738911379   14.37554918281032    1.66629607868663
C         5.00182510478203   12.57040716488255    1.90448390227558
H         4.94511250028959   12.61045004337356    3.00089270697691
H         5.94543856835427   13.01254732268692    1.58753825364472
H         4.97944456720447   11.52971393189924    1.57821555763810
C         1.10631233743941   14.04581872127776    1.77743147177974
H         1.51263952825458   14.84966222659259    2.39746009360296
H         1.14370134304110   14.37174458162820    0.73306438663949
C        -0.31974908492177   13.73710057382415    2.21703947227389
H        -0.71083258093620   12.85911273521568    1.70464568326071
H        -0.97355796404459   14.58181718942958    2.00437349247519
H        -0.33645075820525   13.55434871373825    3.29061874906980
C         1.72082316293455   11.43947556027732    0.63696817898365
H         2.55727470105182   10.74490353293013    0.51399702611785
H         0.88559450019198   10.85430476797749    1.03343351492004
C         1.34096587948536   12.05006669228444   -0.70488605440296
H         0.41982718209044   12.62216326092397   -0.63017684719287
H         1.18426807214113   11.25856806433765   -1.43592777008159
H         2.12444978400766   12.70379430409435   -1.08270123478655
O         3.14939899441391   13.89166216745944    4.54403805839159
O         1.06544428659201   13.53212863181805    5.17966015558185
P         3.19568864723605   11.01327548567348    6.10834511790548
P         2.24316860564087   12.60707387560109    1.97809232318207
Pd        2.65661747215492   11.77404550772513    4.05298884527560

