80
CSD_code = UCOLUV | q = 0 | S = 0 | Stoichiometry = C29H44N2O4Zr | MND = 6
Zr        6.48322115166476    4.71472716999464    6.20140811282977
O         6.86459154299141    4.79610844188098    4.29442867030498
N         6.12448258855184    2.42041222309567    5.76337556251459
C         7.94508485250933    5.43798654786642    3.71118847771384
H         7.65467632896530    5.74217369262961    2.67890272497240
O         5.81416071392729    4.35113241430153    7.97769393302210
N         4.35365010519656    4.20639408382140    5.37207747197488
C         9.16265928353759    4.49767622274885    3.59565967723011
H         9.48370153790276    4.21403554827923    4.59806180165431
H         9.98207842969313    4.99814438100517    3.08468514846830
H         8.89764049710154    3.60406567165157    3.03050536268155
O         8.36068253446991    4.42281236930189    6.68787650702881
C         8.36181085587670    6.70415778004972    4.48156272708555
H         7.52280238397313    7.39917894626983    4.52883485658590
H         9.20310817004996    7.19004595424754    3.98831181637976
H         8.64241023460115    6.41929635153666    5.50134300867687
O         6.13049982592870    6.64441010425503    6.33316413927442
C         5.33800521351343    4.19939177795645    9.26551808797204
H         4.48586810227774    3.47394212086974    9.26844621267167
C         4.80280939874857    5.51962795443896    9.84693029815292
H         5.60157763394541    6.25693679971805    9.85836293900783
H         4.44205193995290    5.36651330794138   10.86216166760114
H         3.98884148409462    5.90227627036508    9.23519157098773
C         6.40590877817159    3.63090724218227   10.21839919205778
H         6.79470837609289    2.68930893807190    9.83661036303419
H         5.97871680708416    3.46421095194285   11.20528883517759
H         7.23154907682644    4.33232729843097   10.30032238064878
C         8.59016306047666    3.40192713952323    7.48665492374584
C         9.33675087162268    3.58518644404083    8.67377218207893
C         9.61493962433666    2.50655255594715    9.48913506036877
H        10.18304882508493    2.66496631515689   10.39590841976524
C         9.17879767166759    1.22140833724495    9.18000636653787
C         8.45818029643153    1.03762855889234    8.01016439830977
H         8.12845549369045    0.04099016894947    7.74381484939406
C         8.16379515028195    2.09546302667679    7.15950682152679
C         9.79052499480381    4.97863143028001    8.99810771666649
H        10.67128691427974    5.23623482923418    8.40809273120507
H        10.03646715723302    5.07769016744262   10.05314607744434
H         8.99739278396776    5.68231204371725    8.73067091283064
C         9.46689028180232    0.07249292643016   10.10185881194232
H        10.45147977699625    0.17665362614291   10.55215544948636
H         9.42474428046818   -0.87388230773096    9.56773680162752
H         8.73278997660245    0.03964099375604   10.90816529968606
C         7.48306426779095    1.86006538293892    5.83349578044036
H         8.07405815849873    2.35632507921262    5.05316069674170
H         7.45472037308650    0.77366608747501    5.62857329454146
C         5.25847756555366    1.76273666314727    6.74676708108062
H         5.59284087792289    2.07774120406656    7.73764820646571
H         5.37439186646138    0.66501870498618    6.67235812503023
C         3.77469200820998    2.09098300341927    6.55803041534049
H         3.38028100658111    1.51754258012168    5.71550655684820
H         3.23724015748288    1.75129063707144    7.44637751931341
C         3.46564834690859    3.57657930459130    6.35211841856813
H         2.41442132202872    3.66281948058647    6.01837924282800
H         3.57323020930881    4.12243436335489    7.29249385075646
C         5.56880254205240    2.28593212607117    4.41739126053589
H         5.16945560790952    1.27081593791320    4.25763799156923
H         6.37580118942681    2.45523291853700    3.70155806672792
C         4.48466004326028    3.36579366512689    4.18259510618064
H         4.81039314708859    4.00073570693765    3.35645791523651
H         3.51569004955228    2.91538522933536    3.91293873286669
C         3.86546687613634    5.54887112568198    5.01671940584028
H         2.87686531027856    5.47216514594543    4.52738486823137
H         4.59288495977217    5.96919022999190    4.30598140596904
C         3.75960660522130    6.48935528241712    6.19134135145786
C         4.94428554631958    7.02534076352718    6.74604152997481
C         4.81958458761218    8.04268566317720    7.72414084352375
C         3.56944963949866    8.44121108858952    8.15135254103503
H         3.49339433129723    9.21096666665293    8.90761463823539
C         2.40220619575212    7.87793882642113    7.64176297392269
C         2.51992259530933    6.91472065453286    6.65334530871288
H         1.62326162287781    6.49298229159413    6.21597499581078
C         6.07775876099635    8.65745970066180    8.26500554328361
H         6.37582140407377    9.50858533830787    7.65102691360618
H         6.88176220632059    7.92014954852244    8.22451088884250
H         5.93852637298313    9.00276720554115    9.28737309038734
C         1.06071208007047    8.33076953679225    8.14038124641077
H         1.00851600152467    8.25214622303058    9.22556530312476
H         0.26344228695334    7.72963014880308    7.71000963218787
H         0.88685887048130    9.37336966435752    7.87437089004937

