100
CSD_code = UCOMOR | q = 0 | S = 0 | Stoichiometry = C52H43NOP2Pd | MND = 4
Pd        0.69114101516229   10.21688045642150   16.36978548498851
P         1.61047949851759    8.19502298602978   17.00877871121215
P        -1.31976795368286    9.97308367775269   17.50883259917465
O         0.39338107049770    9.17981361994296   13.89417823468994
N         1.82056010486454    9.69213543388613   12.18929508744469
C         0.10828908008447   11.98517655349410   15.54330235161630
C        -0.85865235081991   12.91763490970506   15.90679893810348
H        -1.34878682258203   12.86102408130595   16.87455010526224
C        -1.21898597509895   13.94934106892792   15.05248455519644
H        -1.97324013780989   14.65992852836006   15.36351380126402
C        -0.62981486165929   14.06980677305026   13.80712411514708
H        -0.92489679657464   14.86633759472720   13.13844813172997
C         0.35232494497079   13.17182639790651   13.42494951235353
H         0.83786936802297   13.26784608472543   12.46215068990673
C         0.72048136864971   12.15945474041231   14.29451091098678
C         1.83252186699026   11.17269841706353   14.00827018196377
C         2.40595195796667   10.82967366153367   15.39170503242528
H         2.84061547967371   11.74320807266819   15.82939566737754
H         3.21950698328309   10.09501051404382   15.28322842605171
C         2.83231569519444   11.57794909712063   12.97151597196199
C         3.71396971103729   12.63478125469750   12.92681341722917
H         3.75266739974476   13.35095792169889   13.73374847511146
C         4.54373013710583   12.76281332487161   11.81916691236183
H         5.24007483798820   13.58648951817050   11.76645976410581
C         4.48684131900580   11.84889888772909   10.78054244206271
H         5.13958539501407   11.96803566144128    9.92828226114356
C         3.60175721955915   10.77876847337358   10.81203775632835
H         3.56043670463483   10.07126174785308    9.99791537543314
C         2.78165296877645   10.66036281880391   11.91604566865144
C         1.23866672802752    9.90962833305585   13.39969310385870
C         1.51178080941300    8.57342829046997   11.34174946507574
H         0.74052557240615    7.98710885983908   11.84064355343151
H         2.39759397754241    7.95291044392318   11.18570606096032
H         1.13943642830753    8.91528815190188   10.37344273442401
C         3.25053689763809    7.67837569025223   16.39918951380789
C         3.32474620826160    7.36117295995911   15.04371393589843
H         2.42071580795118    7.40129369247738   14.44835747876253
C         4.53313358905263    7.01175752474087   14.47598719428738
H         4.58908683309748    6.76874605627652   13.42443239607503
C         5.67894026359318    6.97689845360506   15.25684093229031
H         6.62632686388157    6.70735244577935   14.81336199534500
C         5.61014804088793    7.29559283112523   16.60212207379025
H         6.50446962590506    7.27436829139090   17.20836475425632
C         4.40107305157271    7.65177072936117   17.17561808787064
H         4.35277251459520    7.91090927639837   18.22451484481202
C         0.70284969073768    6.65528710718051   16.65945226935420
C         1.18935872752118    5.39824783296766   17.00733371482697
H         2.15020841627449    5.30631280532868   17.49599715612848
C         0.45336864228919    4.26902251372579   16.70157002692406
H         0.82401458892017    3.29329097908620   16.98200117393220
C        -0.75110155831164    4.38363293353745   16.02432445421822
H        -1.31989505757919    3.49624826178075   15.78699901810437
C        -1.21138405219510    5.62860261820062   15.63167455237580
H        -2.13330332348320    5.71438123806350   15.07549407321552
C        -0.48633217055733    6.76273851381105   15.94956990251954
H        -0.81760145413368    7.74499173047254   15.62692563288898
C         1.86068194015173    8.26029865026712   18.81220462641755
C         1.63451478458357    7.23390464039101   19.71939443825322
H         1.29335188380080    6.26849506445309   19.37692976404082
C         1.81509176471534    7.46131026654833   21.07361210561771
H         1.63597289458690    6.66158680368289   21.77815633232908
C         2.21279593389090    8.70693632067449   21.52985655720721
H         2.34262695454009    8.87720991307346   22.58853733885118
C         2.43279482899822    9.73765137233302   20.62897670013658
H         2.73213742718506   10.71257503324297   20.98453938547971
C         2.25550051445775    9.51507926309170   19.27725473375875
H         2.41618645943533   10.31462456363347   18.55175669045645
C        -2.02590979425437    8.44072552276553   18.21171130818860
C        -3.00862183758018    7.71520439308845   17.54597308653610
H        -3.43651510633412    8.10471023033658   16.63234266678167
C        -3.44121310663795    6.50261703476150   18.05059572419778
H        -4.20920136150739    5.94819448123567   17.53071038955117
C        -2.89111277259006    5.99525217769337   19.21546887826393
H        -3.22544771783521    5.04413886565999   19.60308709282618
C        -1.91328072986900    6.71347705188699   19.88454717477237
H        -1.48510854188102    6.32663137186975   20.79814021332746
C        -1.48274577423108    7.92776276215739   19.38669534681920
H        -0.72653977123419    8.49401477655723   19.91345512101521
C        -1.26470421280820   11.01248337682198   19.00790897612087
C        -2.20549053104404   10.93535905223344   20.03081920335678
H        -3.02225374453429   10.22937475189085   19.96459013350717
C        -2.08240412843580   11.74409589965408   21.14603951722719
H        -2.81771464929147   11.68356757857290   21.93568380312585
C        -1.01913770139549   12.62577726343461   21.25646418143648
H        -0.92803439358025   13.25268614903828   22.13156891783460
C        -0.07141484419079   12.69590865651510   20.24889233275564
H         0.76213212199287   13.37756402827296   20.33675797923796
C        -0.19251068842314   11.89210574151421   19.13027820315811
H         0.54711083818799   11.93800140657636   18.32735594519836
C        -2.73848154231045   10.57167782253012   16.52931099973661
C        -2.62734301059052   10.40890851301985   15.15068217880559
H        -1.72049957537651    9.97357404562006   14.73840578243646
C        -3.64838534224906   10.82671178003832   14.31839214475256
H        -3.55756908636003   10.70429690023893   13.24901880783222
C        -4.78051447093299   11.41668765254014   14.85690061885709
H        -5.57547154088589   11.75448500678904   14.20792999292799
C        -4.89040791419396   11.58473771806479   16.22739878022423
H        -5.77038836541682   12.05280578582535   16.64512902559771
C        -3.87464753375094   11.16183671223545   17.06662971594617
H        -3.96007344729800   11.30887275665867   18.13358640420808

