99
CSD_code = UCONOR | q = 0 | S = 0 | Stoichiometry = C46H39ClN6O3P2RuS | MND = 6
C         1.88755323523703    2.55493643304047    4.96423769163329
C         0.75022508022412   -0.74999606885198    4.96506425081229
H         0.07294512110366   -1.48847676738794    4.58202940683690
C         1.86633959212460   -0.93022061228999    5.78937006158271
H         2.22040633328402   -1.85289038945539    6.19861347777030
C         2.41089585241122    0.31911614097196    5.95287728575300
H         3.26946863371947    0.66665056128838    6.48683799576433
C         1.64808640268390    2.27746113201555    1.49806531075775
H         1.07682383678915    1.95151901502121    0.64880011208126
C         2.96044600073462    2.75846962631439    1.55116183605934
H         3.62883344874632    2.89958796480325    0.72811559701818
C         3.21124053049565    3.00519736225343    2.87829267848406
H         4.07694940900157    3.36514985539940    3.39157559385507
C        -1.24072422674403    4.01171850288319    5.51624122046003
H        -2.29179751220116    4.04487119817364    5.30781770640231
C        -0.50306309302757    4.80997585876869    6.39483392318498
H        -0.87522514694107    5.60029946443845    7.01198991803812
C         0.79208773003439    4.36451041984866    6.29902513260038
H         1.69484631679468    4.67180214289505    6.78120672820756
C        -0.38010681361228    4.42823427338325    1.49272116308845
C         0.36484312640084    5.13481798055424    2.43775504750715
H         0.10617299376714    5.06960702504556    3.48508506059136
C         1.42542133555581    5.93142631931854    2.05254647969141
H         2.00279699811676    6.45106559029437    2.80235053206284
C         1.75068045030462    6.04521568409135    0.70996346720807
H         2.58354996402707    6.66111611532205    0.40649862335624
C         1.00362200385668    5.36764559491806   -0.23757112797622
H         1.24770594383634    5.45981813085548   -1.28565821585230
C        -0.05113247860071    4.55743252649731    0.14823605757046
H        -0.61436650408604    4.02044781720580   -0.60101447897886
C        -2.86663862873664    4.44208309547943    2.83721495786483
C        -2.71045535351767    5.82345121164794    2.84682919772265
H        -1.84026330519062    6.27958644566281    2.39947375225567
C        -3.67907411390264    6.62752084827729    3.42424594657298
H        -3.54580279382389    7.69927516327351    3.43067657950404
C        -4.81530010959427    6.06811061713629    3.98267138254479
H        -5.56782634285632    6.70101623297783    4.42867278493847
C        -4.01584784378288    3.88763114592455    3.39528976814580
H        -4.13629180029237    2.81321489557441    3.37198183140804
C        -2.54233009201057    2.93090230777282    0.51056342827991
C        -3.55333914963021    3.76087496104509    0.03524222305266
H        -3.87439110084403    4.61563333896487    0.61180947720272
C        -4.15455582420536    3.49358423302217   -1.18174655693083
H        -4.94082215153719    4.14128378321127   -1.54140706039755
C        -3.75319883830100    2.40429015871331   -1.93722991325059
H        -4.22818948953143    2.20007150178783   -2.88562691704620
C        -2.74344005563310    1.57855577775433   -1.47142541914504
H        -2.42637878179436    0.72628032404699   -2.05347156643583
C        -2.13817472318002    1.83880383563500   -0.25495634583869
H        -1.37112851317064    1.17515232963882    0.12119502988645
C        -4.10263053880117    0.40242470420980    3.67693962030582
C        -4.14362613582269    0.53012084436339    2.29440400486755
H        -3.24257813954830    0.82289323642628    1.77246027892413
C        -5.31221020560653    0.26720022982328    1.60251967110194
H        -5.33455837101747    0.37608736339535    0.52829808600039
C        -6.44334198642755   -0.13682783739200    2.29145580786368
H        -7.36018377400250   -0.33835601267587    1.75753079179060
C        -6.39539621763278   -0.30499758008307    3.66744264875755
H        -7.27146773213738   -0.64582953678742    4.19991435986403
C        -5.22765644835798   -0.04953823940141    4.36192551209511
H        -5.18303978059374   -0.20892218957653    5.43047548732377
C        -2.37110069774862   -1.07527705742288    5.05638692117771
C        -2.30514571088371   -2.01632131067749    4.02775717563869
H        -2.27771450827023   -1.67858350476748    3.00053129717572
C        -2.24161962579570   -3.36543005816622    4.31905263527352
H        -2.18097310293582   -4.08399786957575    3.51537091300930
C        -2.25633934523878   -3.79343783759458    5.63744331146796
H        -2.20651890726079   -4.84757756665105    5.86666696670964
C        -2.33977936857859   -2.86468674257432    6.65963829814210
H        -2.36048524188043   -3.19256853435796    7.68880919238513
C        -2.39952454478033   -1.51020322847107    6.37538288112938
H        -2.47336398083072   -0.80359396345698    7.18880310341956
C        -2.92172880992376    1.50031962874716    6.10042893415091
C        -1.89903729584049    1.54149701019286    7.04952419460057
H        -0.95980980825393    1.04159705008222    6.83980601941920
C        -2.07099585942505    2.21003878851735    8.24554096820039
H        -1.27203572287087    2.23024658176215    8.97178730742801
C        -3.26597750205530    2.86442583268878    8.50183264036572
H        -3.40315720213611    3.39265550955923    9.43329651806730
C        -4.27891822606713    2.84496958180386    7.55867658214492
H        -5.20726282292748    3.36179304041513    7.75363084769735
C        -4.11021026253295    2.16987501104899    6.36122091840526
H        -4.90550422535014    2.16742916711541    5.63138348791496
C        -4.98616733956444    4.69297031988762    3.95993100411781
H        -5.87788655296157    4.25159415701790    4.38046979668797
Cl       -0.54681488716843   -0.11187682426602    1.94846841268455
N         0.61506081958343    0.52638518380691    4.66298326345591
N         1.63313598995247    1.17539104875311    5.25837757025547
N         1.13723658969945    2.24748759932930    2.71164589774780
N         2.08601628317632    2.68473989183340    3.55091548975840
N        -0.44685253608678    3.13882941209664    4.92031817162210
N         0.78852336597674    3.35758908336777    5.40118238659929
O         3.55471718632180    4.50793965725496    5.43160917585868
O         4.48084592708518    2.24694872314856    5.34588499367709
O         3.10976752905702    2.92846802277217    7.24994381912870
P        -1.67273582853076    3.27061632599782    2.08737516613509
P        -2.50907795912605    0.67902532423279    4.52709986082408
Ru       -0.65846219481421    1.66639811742002    3.49173234451420
S         3.48601015639092    3.13973834166313    5.87615414825441

