113
CSD_code = UCONIM | q = 1 | S = 0 | Stoichiometry = C59H50NP2Ru(1+) | MND = 8
Ru        0.09215138816504    4.72972898958943   12.06887629444055
P        -0.46684040027566    3.04821694198147   13.57398434065823
P        -1.53805605765371    4.47522401157274   10.46478482024428
N        -1.77034327216517    8.41955592003622   13.21478958819562
C        -1.15343324861595    6.10084287940753   12.93071417455854
C        -2.26712012071954    5.80920653866379   13.74387325387505
H        -2.48709753554719    4.77642735056490   13.97031567243429
C        -3.10672674766820    6.78416371983117   14.26153786757473
C        -2.84250789430214    8.11170479893094   13.94974008925583
H        -3.46062676986826    8.91826561713969   14.31104697062005
C        -0.95557580924462    7.47066963958823   12.73158144279462
H        -0.11887565091703    7.85478698424334   12.16469099275707
C        -1.49765402226443    9.80478125787787   12.86567992740861
H        -0.45609435383056   10.03641101464221   13.10579057103800
H        -2.13773333113868   10.45237852571395   13.47196969516313
C        -1.75447112894040   10.06478887828875   11.39716178186464
C        -2.87843650054034    9.53475159808306   10.77595769002559
H        -3.56347218233278    8.91100494981928   11.33348195313837
C        -3.12362498970581    9.79884071457245    9.44019198281275
H        -3.99853487933528    9.38420149072278    8.96341143931851
C        -2.25590680388857   10.60045111386169    8.71801264331081
H        -2.45348494779027   10.81116500903224    7.67838934527548
C        -1.13411563594100   11.13005156163187    9.33339253178370
H        -0.45347282045742   11.75552869288522    8.77628051376286
C        -0.88021820030439   10.85779658255551   10.66670707419320
H        -0.00472307884762   11.27450977873987   11.14331618941268
C        -4.24569690943380    6.42159072969222   15.11592950810738
C        -4.06383943181518    5.52090379249265   16.16200649700372
H        -3.07332125482939    5.14060925458785   16.36889089044712
C        -5.13248942396876    5.15240849161288   16.95768303150276
H        -4.98142531953114    4.45876608216915   17.77106097362886
C        -6.39232120179541    5.67524070459952   16.71495697282525
H        -7.22700439744752    5.38380120651872   17.33368362914383
C        -6.57768867289388    6.57940834394575   15.68203507962207
H        -7.55732073148624    6.99258137090734   15.49562343471338
C        -5.50970552639245    6.95669703536942   14.88869346882930
H        -5.65778947111698    7.64955891498207   14.07325121017007
C         1.63109629780704    6.08571538068428   11.12890011573968
H         1.54635638899278    7.02619640082589   10.60130887007229
C         1.76918444175123    4.81824102741101   10.49608055380031
H         1.71790713313611    4.65588045425322    9.42708438374784
C         2.13604058136383    3.87281869742346   11.46598569353029
H         2.46495714610326    2.86081490099303   11.28059267704388
C         2.23798527423120    4.55151086084414   12.71761879244969
H         2.64865336359840    4.12670457438335   13.62538817336961
C         1.95809215548680    5.91922795726339   12.49896946518389
H         2.10289121888087    6.71359418003860   13.22062199722796
C        -2.02550814749989    2.06208804445435   13.58123394881768
C        -2.23500944461748    1.05729130029574   12.64005918653487
H        -1.46276530044254    0.79836845253702   11.93606455572362
C        -3.43280774991138    0.36633491510127   12.59428780913767
H        -3.56670445686688   -0.41251996305047   11.85887796606986
C        -4.45138624016455    0.66979953544775   13.48073249093187
H        -5.38609653156744    0.13199153973663   13.44193758150721
C        -4.25707693560616    1.66615661846996   14.42240618272409
H        -5.03928782447680    1.91219171961495   15.12539353826495
C        -3.05934817001370    2.35525894474874   14.47285611571998
H        -2.93664698302358    3.11860131368216   15.22631258759919
C        -0.38280414123885    3.53120914086572   15.33789001906591
C        -0.71926522478872    2.63020663593741   16.34923954811877
H        -1.04346830513890    1.63098954540817   16.09251146831816
C        -0.63341757815889    3.00930888832901   17.67567064197449
H        -0.89691298150807    2.30618186737135   18.45146618605126
C        -0.20543967361384    4.28502507887409   18.01145445228357
H        -0.14260758118279    4.57821217670912   19.04825306377688
C         0.15056353545770    5.17699036130520   17.01433113077320
H         0.49764616781840    6.16654748102216   17.27304034606643
C         0.06524638840355    4.79933471668608   15.68512221008841
H         0.34765210599133    5.49052415966652   14.89986241946703
C         0.78492322391445    1.70463188110127   13.53565522543943
C         1.58471738366512    1.38416353066793   14.62831842923880
H         1.48851730100379    1.92477952548323   15.55801688679258
C         2.52522414614248    0.37234743583372   14.53452000365459
H         3.13779815238680    0.13660448685555   15.39192178993767
C         2.68481913339241   -0.33196976465728   13.35415627422539
H         3.41495352436479   -1.12388730252839   13.28813469953051
C         1.91407706422177   -0.00022243635116   12.25208112271335
H         2.04590781584536   -0.52871562168399   11.31916214333793
C         0.98357755467944    1.01787878447730   12.33916290290565
H         0.42094947592013    1.30308958762930   11.46142299786548
C        -3.23767691468648    5.05412060570376   10.81073833157188
C        -3.94372160793358    4.35282644653779   11.78732346858667
H        -3.48715427696187    3.47953954262189   12.22842286392910
C        -5.21161498253519    4.74821927636990   12.16624078981273
H        -5.74457486662705    4.19261870123904   12.92334436077327
C        -5.79371986670820    5.85580740818851   11.57055243506441
H        -6.78606109681248    6.16712087922867   11.85973861307074
C        -5.10410923579127    6.55136521725319   10.59216730488310
H        -5.56490881861002    7.40316158525116   10.11306039094573
C        -3.83106571013958    6.15848293052989   10.21129152899223
H        -3.31293130956427    6.70649510070762    9.43835470061021
C        -1.12709460590645    5.42703412645593    8.95849879267093
C        -0.88380596167958    6.79048014474699    9.11814485552552
H        -0.98396468255443    7.22784271601049   10.10352314343394
C        -0.53107913877355    7.57480344029646    8.03749847481036
H        -0.34472989502717    8.62978311110943    8.17534016479993
C        -0.41738455612100    7.00434999934544    6.77904006850724
H        -0.13401797864226    7.61246345111275    5.93368298379640
C        -0.66979242439577    5.65403928321040    6.60978757998134
H        -0.58908579093987    5.20824191154904    5.62975831666208
C        -1.02482052913050    4.86495399415040    7.69154029634377
H        -1.22097468932476    3.81329376731170    7.54332605876028
C        -1.81281046319831    2.81002362346106    9.77072144073337
C        -3.05989783537674    2.23037771317391    9.57169832439247
H        -3.95941186941169    2.77059971640781    9.82552215052805
C        -3.15038500158845    0.95547600733059    9.03814989048613
H        -4.12246481864650    0.51056216792768    8.88679026612694
C        -2.00757347763916    0.25424148398423    8.69277458719950
H        -2.08559863352580   -0.73958025245146    8.27903257271769
C        -0.76097390820151    0.83511999562267    8.86903737351812
H         0.13254508973376    0.29780897360728    8.58639865907765
C        -0.66599038884435    2.10439434523564    9.40712006077753
H         0.30166387561461    2.57381508579197    9.53847896219685

