71
CSD_code = UCOREK | q = 0 | S = 0 | Stoichiometry = C35H29ClN2O2PRh | MND = 6
Rh        7.22691989772633    8.19521840579502    0.59055543188247
Cl        7.77177357228724    7.29952308156735    2.57170391842118
P         5.05767803232311    8.08594828918592    1.19869715246813
O         1.87493777757862    5.20009956418029    0.28292854986344
O         2.92937418058167    7.20836283546606    5.13593136649539
N         3.15163403729823    6.36387108946266    1.71827931862045
N         3.36961147696569    6.98827624155087    2.93685456776621
C         4.25762961233302    6.45610976264376    0.80103983049919
H         3.87032413995234    6.41086410396620   -0.22337098733070
C         4.54029439860378    7.83841275399425    2.98234904641297
H         5.37427838044569    7.31886888158227    3.48036470969847
C         2.03200106149252    5.65282684843125    1.40581460548050
C         1.09394863879386    5.47888562443201    2.52306390320393
C        -0.08773490118622    4.76876680813430    2.31758947449576
H        -0.29326408046871    4.39923037979926    1.32436578616463
C        -0.95478997044644    4.54756197457677    3.36745168508808
H        -1.86925213433841    3.99715739645417    3.20443647844025
C        -0.65093213718545    5.02743688414108    4.63690637288760
H        -1.33047123308162    4.84850125091183    5.45662961817911
C         0.51617874676795    5.73133696750466    4.85128430655452
H         0.77605049125825    6.11878544172222    5.82475316930007
C         1.39767551120424    5.96541728979618    3.79762017071777
C         2.61688041877594    6.75392381861768    4.05122334822697
C         3.84730959056595    9.33377169389177    0.65802732351630
C         4.22928991100853   10.65271424236509    0.90094042279165
H         5.18995586431924   10.83893657442709    1.36806491271447
C         3.39137729982494   11.69790620611267    0.56641736776133
H         3.68929468049172   12.71610043608955    0.76736641485702
C         2.16619589734816   11.43315444500674   -0.02540738292415
H         1.50681745222751   12.24649037844908   -0.28931235424308
C         1.78803225518931   10.12624438820245   -0.28228721147111
H         0.83508555894793    9.92102385217226   -0.74739931483807
C         2.62234564812695    9.07374494408822    0.05599448432734
H         2.30531100137799    8.06273989653837   -0.15288104368591
C         4.31530006907496    9.16819724129805    3.63955785653983
C         5.40719188727138    9.81372767978276    4.20807588398034
H         6.36954889694801    9.32241919618854    4.20648382565380
C         5.25985142860835   11.07077233911843    4.76455808452306
H         6.11268112824020   11.56491623244212    5.20578303372043
C         4.02188324493822   11.69179240288456    4.76203189804101
H         3.90489207744908   12.67046104541956    5.20362591212135
C         2.93353939335277   11.05350278632308    4.19357999252173
H         1.96552018427204   11.53248470503104    4.18754664778898
C         3.07958045241351    9.80153571428049    3.62425809327020
H         2.22336670775935    9.31699949836564    3.17563473283932
C         5.33052684601803    5.41017356462774    0.99682348988732
C         5.41181372966872    4.62479962449954    2.13503633541016
H         4.65048695858081    4.68190413618319    2.89983480563309
C         6.47748126880308    3.75571099077062    2.30528443416625
H         6.53595699075074    3.15703754915309    3.20160140527553
C         7.46861497067117    3.66839218189690    1.34608548277989
H         8.30519760775606    3.00175624059200    1.49135879762453
C         7.38600329845817    4.44048263443977    0.19844763485575
H         8.14802771518588    4.36312419214468   -0.56340765762890
C         6.32548462210704    5.31179208747960    0.02484247617757
H         6.23272261155833    5.88058529320626   -0.89402010065073
C         7.22107363577908    9.72148097609358   -0.87655301562846
H         6.45315828235415   10.48272212211690   -0.84481269034174
C         8.71498205404523   10.04525621588867   -0.80883451541031
H         8.98358954303358   11.08074146062023   -0.61841890300661
C         9.18479478534133    9.01274566093375    0.21445104420277
H         9.75297153697155    9.25517465982236    1.10323723107624
C         9.08641703404830    7.78183151919456   -0.40068439015716
H         9.57031516507823    6.86294320000980   -0.09573047257877
C         8.55645386837483    8.04570248300769   -1.81099326031536
H         8.68389319371465    7.24864314635302   -2.53878022422481
C         9.21240101919888    9.40201188457802   -2.11256285923320
H         8.81178865730836    9.88182320803192   -3.00573562820964
H        10.29954594289420    9.34766298617268   -2.17535669017188
C         7.12081538796940    8.48063326730941   -1.50506936382265
H         6.26516672690205    8.12294712245076   -2.06217476907796

