68
CSD_code = UCOZUI | q = 0 | S = 0 | Stoichiometry = C25H39NNiP2 | MND = 4
Ni        1.92485362900075    0.95648722495500    8.31576311590096
P         1.95087810882901   -0.78625478596514    9.60972925856098
P         1.87122374176664    2.33825689837612    6.66630688562111
N         2.82309852345565   -0.25670202617462    7.02958229263523
C         3.61734818881155   -0.19880662861821   11.70694140010317
H         3.88945584737540   -0.27676304703686   12.75854352433042
H         3.50682779639704    0.85523270864785   11.45614038634325
H         4.43059656210910   -0.60518522671222   11.10744383115288
C         1.17792615296063   -0.43259608982757   12.29687873436562
H         1.46666584171077   -0.47172398041935   13.34669649129393
H         0.28181401553422   -1.03619214908183   12.17155064265826
H         0.93734155938987    0.59752389058352   12.04770762544783
C         2.31840016389825   -0.94986333256585   11.42636267685781
H         2.46818053713177   -2.01342311080823   11.64271631698601
C         0.39226625314602   -1.78456517253268    9.36246826337949
H        -0.37645634808736   -1.30575574670218    9.98139115734280
C        -0.00871262611968   -1.63277177742451    7.89655660227423
H        -1.00602371347818   -2.03327626599549    7.71942200900320
H         0.69428820650982   -2.15959172767848    7.25331223804411
H        -0.00194547747306   -0.57249809267092    7.61598834683125
C         0.53075346786541   -3.24956890316573    9.75480413323342
H        -0.39254226650376   -3.78184738716100    9.52897630182201
H         0.73218603142511   -3.36080161101822   10.81803721971330
H         1.33944816245598   -3.71748115315780    9.19606909432743
C         3.26291428530646   -1.75985648889015    8.82299843168580
C         3.97534772348000   -2.80356903708070    9.38907039102950
H         3.72034822981392   -3.17097436930712   10.37299557540152
C         5.02858748393499   -3.38280182277108    8.70286888928732
H         5.57975764566762   -4.20064793510329    9.14242431966682
C         5.39385050961690   -2.87484635026782    7.46360805559796
H         6.25131736674360   -3.28596808897300    6.94898516753126
C         4.68928518808503   -1.84404451879805    6.88178228060334
H         5.02056881021305   -1.43546910408940    5.93803423213994
C         3.57406737529708   -1.28325308975105    7.52751316619930
C         2.68750159632047   -0.03569020970065    5.69203048613754
C         2.84972808940920   -1.01699409690649    4.69680019105810
H         3.06883525567506   -2.03553462923017    4.98266850025288
C         2.68446895261788   -0.70553912742245    3.36607808731420
H         2.81135194882085   -1.48004703941223    2.62231657280734
C         2.34402655645262    0.58019080430200    2.96633668481010
H         2.23037024457548    0.81531465044868    1.91873648686097
C         2.10979686056884    1.54677946942893    3.92804337508827
H         1.79743020714290    2.53435563781896    3.61899497911833
C         2.26219055632003    1.24783801414272    5.27202352268986
C         0.41808534921104    3.31111806781571    6.03145759967425
H         0.67844692471748    3.66696641384879    5.02844089176460
C        -0.75440758584206    2.33882947908989    5.93569376711482
H        -1.64409716153582    2.83873714346489    5.55639256516048
H        -0.97689750381039    1.93453538377937    6.92360194406394
H        -0.51189579073190    1.50964811553785    5.27235097286557
C         0.05732003070741    4.51144314394914    6.89799985090073
H        -0.76328263679377    5.06186169614714    6.43885750954547
H         0.89935631061380    5.19134565869701    7.00848283920069
H        -0.26468794710707    4.18703766880965    7.88390769949491
C         3.28875586742522    3.54085930578373    6.77920049237029
H         2.98864491636302    4.30621592837901    7.50546383339233
C         4.45697937314574    2.74917215072142    7.36442641164530
H         5.28244817435015    3.40475330191880    7.63751699763204
H         4.81832654306959    2.01862280690288    6.64178362286485
H         4.12594285744907    2.20943109948339    8.26186119579232
C         3.65771484150093    4.20243365154173    5.45871159256795
H         4.51379902665509    4.86103689521266    5.60074107251773
H         2.83412650671625    4.79784027620730    5.06980381652442
H         3.92577606313561    3.45062945770334    4.71883979100752
C         1.15581372162178    2.20455963923524    9.60755681634010
H         1.71032116182301    2.13743270676768   10.55046789785504
H         0.10958253089051    1.93745235267308    9.80577515930522
H         1.18491118246382    3.25286247984576    9.29776771693287

