81
CSD_code = UCUBEA | q = 0 | S = 0 | Stoichiometry = C40H37NNiP2 | MND = 4
Ni        3.96982790801240    2.11069124111227   15.56231035319678
P         2.96845377132113    2.29814683487972   13.68175243741332
P         5.24277248265042    1.58269490692797   17.21324337970900
N         3.98228333356491    0.16949702914315   15.11160239280077
C         1.55361393298780    3.38880501208938   13.35958525659795
C         0.35549932965756    3.12272160292532   14.01907902326347
C        -0.72508930552658    3.97032011822163   13.87054821361599
C        -0.61654532752185    5.09737086278527   13.07079954868694
C         0.57549965468620    5.37290920005981   12.42183168969989
C         1.66053694431927    4.52691574351436   12.56830248556850
C         4.03351364563954    2.58474295952230   12.23062465549862
C         5.15941291768968    3.38622717279541   12.38874724449862
C         5.99623916215582    3.63058952616093   11.31529078253822
C         5.71464437976520    3.07100283323600   10.07958869972644
C         4.59871359569653    2.26475989919925    9.92048856852196
C         3.75885172098578    2.01866410907911   10.99163492160389
C         2.31438404951517    0.62474860388447   13.48231238227150
C         1.24941551395915    0.25739157714065   12.67792312756528
C         0.81156427865105   -1.05516487258836   12.67562523387056
C         1.42131898388884   -1.97493365231223   13.51960097225677
C         2.47643402381619   -1.61880675918115   14.33185437362885
C         2.97871384472344   -0.30621372172027   14.31757159272894
C         4.96444460274691   -0.61240506856341   15.64090247485488
C         5.39032549005678   -1.84851584740979   15.11927638863146
C         6.39836834531299   -2.56029579822858   15.72975645264739
C         7.03883930791568   -2.08240912578123   16.86802262811620
C         6.69114600510088   -0.84010525241254   17.36295629670802
C         5.67650225441416   -0.11520517294085   16.75900910259693
C         4.76721308307250    1.53568778286121   18.96388684357679
C         4.33571376427388    0.35829260999519   19.56352059881102
C         3.91323563455934    0.36636832915829   20.88117796760713
C         3.90517577127350    1.54869774439718   21.60241413866711
C         4.31618161584697    2.72961200548406   21.00301774447344
C         4.73979568049514    2.72619439139385   19.68798389365683
C         6.88414680299519    2.36539286138040   17.23166302089944
C         7.71173229499166    2.44381521051874   18.34421327027517
C         8.97653033037413    2.99263627685578   18.22043931391141
C         9.42191744208861    3.45645705444703   16.99373314708818
C         8.60030160408241    3.37508832487456   15.87976874274090
C         7.33639543539227    2.83312120116475   16.00138584858584
C         3.78013267908846    3.99209653900668   16.06634376571752
C         2.51570419493891    4.00489867287463   16.92752767961928
C         2.13292110814855    5.43222531363894   17.33481329490783
C         0.87379362016067    5.45251933525795   18.19167782278222
H         0.27899738673754    2.23979820103969   14.64039203205333
H        -1.65349154329121    3.75588015434006   14.37997165385277
H        -1.46064105641870    5.76126890511415   12.95563857986683
H         0.66121793923631    6.25277409801239   11.80060083184086
H         2.59193199355760    4.74488335410408   12.06413910123907
H         5.36600713455771    3.81202793714678   13.36347147511304
H         6.86961940169243    4.25414086472993   11.44091378556658
H         6.36831950974639    3.25820906481715    9.24025867332012
H         4.38470826612067    1.82404223606823    8.95751665389888
H         2.89468620737889    1.38115119235950   10.87191554460534
H         0.75195488717012    1.00209068658906   12.06945817117080
H        -0.01406453152177   -1.35402649536276   12.04745759184881
H         1.05048702540090   -2.99006656205628   13.55503608413494
H         2.88780459981098   -2.34265093416789   15.01986252089956
H         4.95044337240660   -2.22118774671597   14.20590477384154
H         6.70560472655527   -3.50626006490711   15.30543256536238
H         7.82105219387338   -2.65967477957888   17.33731461270781
H         7.20887808502265   -0.42211220342663   18.21640715916175
H         4.33766545243492   -0.56114259322674   18.99463453233972
H         3.58631614001665   -0.55232815486666   21.34639571156934
H         3.57400839581530    1.55222553239041   22.63054678451092
H         4.30202279190591    3.65341436678056   21.56328550349944
H         5.05790375842131    3.64380863855092   19.21136879526749
H         7.36793420212308    2.08462062949921   19.30420139363854
H         9.61972241121699    3.05634932740116   19.08641469825785
H        10.41048070109029    3.88276606415032   16.90584925569766
H         8.94785009913586    3.73602788074389   14.92269306704140
H         6.66862787115366    2.76019376752086   15.14696433424724
H         4.62847779110472    4.38826076134015   16.64397535374351
H         3.62975155674853    4.66457316965110   15.20766904443098
H         1.67548384774601    3.57307908194018   16.37064020007414
H         2.66408042389609    3.40797492124414   17.83438114275590
H         2.95927560757954    5.88241839194384   17.88970024066620
H         1.97002211954055    6.02931244688676   16.43446469966448
H         0.61867133912218    6.47088006547964   18.47682432474632
H         1.01998755800628    4.86749203458253   19.09742294264214
H         0.03522642689043    5.02923814525414   17.64276839231740

