84
CSD_code = UCUBOK | q = 0 | S = 0 | Stoichiometry = C40H39NNiP2Si | MND = 4
Ni       -0.06274816446173    2.69070927795563    8.59963770099681
P         1.66710246128906    2.46994206406676    7.34044700906607
P        -1.34876795986749    3.17549800621570   10.23630618539957
Si       -1.91308025341148    3.79555240645769    6.11459366268690
N         1.36147873929364    2.75880507020454   10.01535363842685
C         1.99991092709769    1.66537448482295    5.74960149623650
C         1.68965380914665    0.30994486236515    5.66313690105906
C         1.88709501575067   -0.37967164578331    4.48281803308274
C         2.38579440188215    0.28313743243092    3.37198672750999
C         2.67837311647443    1.63472972434087    3.44652446842397
C         2.48236364111500    2.32829540511135    4.62800195052144
C         2.46956127809503    4.10276212051136    7.27360202673506
C         1.72149233324338    5.18784768426955    7.71677464300929
C         2.29028504811336    6.44553014111115    7.78538534058326
C         3.61315643376256    6.62140911081778    7.41204296722117
C         4.36721199898222    5.53931156548205    6.98482655686267
C         3.80281251944996    4.27801943447890    6.92228202883655
C         2.78554459776936    1.63209150763940    8.49536035095452
C         3.83756346974527    0.79283878998319    8.18704542101448
C         4.59416151836783    0.24473557550629    9.21054971461243
C         4.26798371268853    0.53147530358509   10.52893632544239
C         3.22081353948349    1.37196026889937   10.84663319812101
C         2.45652672623955    1.96435087688095    9.83045897476038
C         1.15111816760675    3.49874699569909   11.13976778747744
C         2.15939026669434    4.00255460140102   11.97785942291966
C         1.83463062574221    4.75531058197292   13.08564162404851
C         0.51276282896399    5.03662360656422   13.40758766542396
C        -0.49931625379669    4.58964454367984   12.57550940258410
C        -0.18349519341662    3.85488444575356   11.44741429044460
C        -1.81606793218418    1.61006976490959   11.03762307786081
C        -2.57105447751466    1.54775322886934   12.20310165967093
C        -2.80971673195970    0.32350523586035   12.79980886934534
C        -2.28894439437853   -0.83614746468174   12.24634758139024
C        -1.52541394570826   -0.77635623595091   11.09156403523115
C        -1.29047831704571    0.44509265655265   10.48892180868117
C        -2.84404810334597    4.19149956567876   10.33821208955845
C        -4.09963800127380    3.61332478904356   10.17636218315518
C        -5.23440785123484    4.40303677711921   10.18048593131136
C        -5.12586137669069    5.77608139270497   10.33266392462995
C        -3.87691662520872    6.36010448539344   10.47127122346284
C        -2.73990058765800    5.57396481094619   10.46563838173148
C        -1.48331901095193    2.36852273421731    7.29683533027777
C        -0.49163322481408    4.13345169236186    4.88128857280690
C        -2.34329358043678    5.40784981903066    7.05168041977982
C        -3.45528828650017    3.28364576333148    5.10003722482134
H         1.29874683554695   -0.19551316154996    6.53748438615145
H         1.65207402729599   -1.43255904325448    4.42454170729007
H         2.54184473556821   -0.25328763203005    2.44761443278901
H         3.05955347989671    2.15281129322783    2.57835008199551
H         2.70359680334972    3.38463421020182    4.67693780318413
H         0.68591515467230    5.01946257022739    8.01174127797312
H         1.70841758777685    7.28705696753374    8.13229156131521
H         4.06215839113778    7.60260758146852    7.46333881463858
H         5.40227967320128    5.67945166384150    6.70798780958036
H         4.39433347512495    3.42717401813916    6.61258881100093
H         4.05942273417147    0.55793051748803    7.15425782021546
H         5.41920927592842   -0.41362367301859    8.98361114511995
H         4.83766685215399    0.07722543233824   11.32796200432847
H         2.96102145894190    1.54196478727886   11.88147541012275
H         3.19577697756518    3.82393454972077   11.73029588299606
H         2.62761675145064    5.13880523367393   13.71277968365449
H         0.27716752037000    5.61497435950917   14.28821588662436
H        -1.53204609093895    4.82188618495489   12.79907464217480
H        -2.96963686596079    2.45512387308420   12.63526665071957
H        -3.39962741416767    0.27173078481818   13.70355614197016
H        -2.47688533906222   -1.78896523163581   12.71929578139957
H        -1.11678494065732   -1.68108787251596   10.66547360162089
H        -0.69409343991660    0.51733974664486    9.57686034355597
H        -4.18220315583250    2.54208697588280   10.05279526283945
H        -6.20709486539414    3.94789975845321   10.06188945863587
H        -6.01362288033420    6.39120282859620   10.33673353308056
H        -3.79037750005546    7.43157790829695   10.57875887426863
H        -1.76293683386682    6.02782515280553   10.56158595059444
H        -1.14244653690652    1.49831151892329    6.71421836398619
H        -2.39290162747727    2.06306814834615    7.83371004626925
H        -0.75784354889354    4.91747251552819    4.17890862569789
H        -0.25311787200789    3.24347616588064    4.30655100490862
H         0.41286316666756    4.44453478712690    5.39562186614371
H        -2.36784837086920    6.26117132309318    6.38039243606031
H        -1.61804626696534    5.62026601332935    7.83188888739659
H        -3.31645505606581    5.33512386027136    7.52789011963707
H        -3.74136901828633    4.07092770912301    4.41047894895322
H        -4.30675698494199    3.08734934999618    5.74395544674572
H        -3.27066719711586    2.38771556608723    4.51589166652245

