115
CSD_code = UCUCOK | q = 0 | S = 0 | Stoichiometry = C40H68N2O4Ti | MND = 6
Ti       10.40403694007263    3.00371138352730   13.11057971165717
N        10.74722827366916    0.64654682353019   13.66590866284337
N        12.36922064975672    2.81498655820336   14.63648898924237
O         9.64026625125718    3.22502310819184   14.70861791751373
O        11.55745377609671    2.46486221266883   11.85773045922587
O        10.69395304410148    4.70694173197529   12.74976062788157
O         8.89921132779559    2.58635574720542   12.31166570732719
C        12.14422951164870    0.43638197238278   14.03882569554172
H        12.75892376723819    0.55089170976087   13.14158466747736
H        12.29707577873306   -0.58867544180548   14.42603189085817
C        12.58609244198323    1.44437821528649   15.09712573136457
H        12.00437938312488    1.29231367282720   16.01129520647391
H        13.64814677465939    1.27258712753926   15.34464922378944
C        12.16793512005877    3.70636669773107   15.78455155261672
H        12.03048052217643    4.71636607774453   15.37955458594659
H        13.07446095686037    3.71271668103698   16.41914060825291
C        10.97545394656669    3.36005153434221   16.63693802503679
C        11.11076328858338    3.25615949769973   18.01170447499129
H        12.10060048193394    3.35574501709546   18.43060031656958
C        10.01167747018971    3.04598991897136   18.82787917868855
C         8.76024907093439    3.01441888239569   18.21530162656415
H         7.89655321106549    2.90641288106985   18.84854662252323
C         8.56946707763525    3.12106574962206   16.84973719864123
C         9.71530067647984    3.22757971631795   16.01555049753907
C        10.10961475806984    2.88991832195782   20.33806411867579
C         9.50649574770615    1.53822774854959   20.74615968472340
H         9.57261114931646    1.40582893106266   21.82435083839325
H        10.04648425622468    0.72554576999534   20.26435736998830
H         8.46137196373300    1.46931328943862   20.45823136888835
C        11.55561724911339    2.93390465133354   20.84019713220934
H        12.14937648507484    2.14121259811250   20.39063407710297
H        11.57029978700673    2.79516320917082   21.91958956459749
H        12.01659031436333    3.89364722209974   20.61925874242615
C         9.33498347283007    4.02784096854111   21.01758061496854
H         9.41664241085636    3.94628202631035   22.09974909192761
H         8.28185127222162    4.00134872032013   20.75275971294124
H         9.73867708377745    4.99047488318407   20.71112527856794
C         7.17351396957017    3.20650036390786   16.23873917332292
C         6.94729054197115    2.07320691708101   15.23026238422165
H         5.93470899102704    2.13182190691311   14.83320207152977
H         7.06840866231568    1.10697153850473   15.71818097373174
H         7.65161715376913    2.16140337539440   14.40263079639641
C         6.05835251999487    3.13771673046345   17.28837204099153
H         5.09419358809219    3.22896078428083   16.79148037009156
H         6.14106441837468    3.95014966707441   18.00671947095307
H         6.07186406733695    2.18728612580778   17.81765900045743
C         7.05837943388113    4.55198182296676   15.50741736457064
H         6.05964337179550    4.66894252311118   15.08953170033521
H         7.78482761555013    4.59278438917930   14.69806296051688
H         7.24580593411736    5.37578950879218   16.19432881100149
C        10.43578801508569   -0.09914704753275   12.44069423257969
H         9.39034897362439    0.12961305917124   12.19380561876108
H        10.50990706734700   -1.18472505859270   12.64460076623598
C        11.27652513070138    0.21104889033757   11.22642015190488
C        11.70315725956706    1.52726406171099   10.95123775848523
C        12.31283452348303    1.77592112185210    9.69002397069151
C        12.52735259479426    0.71093058486679    8.83473009818761
H        12.99942751424070    0.89895684172602    7.88612702076742
C        12.16451776538834   -0.60133816527786    9.12807437910216
C        11.51641445273120   -0.82023266860110   10.33052807367731
H        11.16980588687463   -1.80689674396381   10.59740828146575
C        12.66061549181798    3.20380901542893    9.27708194940465
C        11.37777202938972    4.04688624848306    9.30675511502675
H        11.59742104126331    5.06801289751506    8.99801947695738
H        10.97177314293466    4.06480081189369   10.31946076184883
H        10.63479380507016    3.63118871429857    8.62776317805261
C        13.25696387019672    3.29164853299945    7.86745841028790
H        13.45686593195973    4.33506778727936    7.62994008730120
H        12.56588223544730    2.90732276432598    7.12066645639326
H        14.19741250924848    2.74866721431892    7.80121588210764
C        13.66926278554392    3.80855354084596   10.26154137077611
H        14.01642397705945    4.77399502351812    9.89713582889914
H        14.53140989614247    3.15385993734164   10.38019084939457
H        13.18598916813572    3.95300488708231   11.22318115835371
C        12.46058426680589   -1.70387984835858    8.12251340600596
C        11.72017462633469   -1.40234082635076    6.81187237841790
H        12.05134400286002   -0.46238205007320    6.37966845920482
H        10.64979764039622   -1.33426104940750    6.99427882587217
H        11.89899163437241   -2.19355917623790    6.08621220971249
C        13.97227742196245   -1.76102737385992    7.86129822983420
H        14.50528386134553   -1.96169293918944    8.78837345711854
H        14.33856518992199   -0.82254069803573    7.45523755707394
H        14.20295763739478   -2.55276688617937    7.15099538025846
C        12.01290428190019   -3.08306027558641    8.61460271043520
H        12.51518227094219   -3.34774566538249    9.54222895056795
H        12.26386433274581   -3.83482537547006    7.86851130236032
H        10.93720240241697   -3.11118512359815    8.77105045822557
C         9.86865394782060    0.14070405487739   14.71459566039308
H         8.83622299990735    0.20919156573054   14.37820948541321
H         9.96796961260083    0.72441366336962   15.62792326388840
H        10.09413643997175   -0.91567077912915   14.94277208980080
C        13.52961161593248    3.28834127983708   13.89321872774653
H        13.31427339144883    4.27791530739801   13.48860412764026
H        13.74622882380195    2.61345899476885   13.06776785706306
H        14.42005356103508    3.35035141742273   14.54340160651436
C         9.90377953627910    5.83736739090023   12.88121832910234
H         8.83135553202640    5.55070438028289   12.83692934625867
C        10.15540579725361    6.54059707886842   14.22697390762438
H         9.49755390646585    7.40033478187603   14.33248191591525
H        11.18965338851066    6.87989557809658   14.27552675352172
H         9.96514296548037    5.84889296766339   15.04566508139262
C        10.18808037895482    6.81404366351951   11.72653670281709
H         9.59636372742517    7.71942342786297   11.83809283297675
H         9.94614721277968    6.34476078116449   10.77590060976073
H        11.24517044931052    7.07313135900794   11.72532002468593
C         8.20249141146825    3.02070758792501   11.19621822013410
H         8.66485687259976    3.95200724123141   10.80820932217377
C         6.74197396985805    3.32844221082627   11.57064162281824
H         6.71657641781014    4.06714535512813   12.36900200596664
H         6.25682694895071    2.42015591727259   11.92317314723821
H         6.20014965112184    3.71169974141344   10.70931760556119
C         8.24495612384159    1.96273713875098   10.07951100001287
H         7.75968685782441    2.34057084809954    9.18257843465422
H         7.72829893022824    1.06113452351719   10.40561661284069
H         9.27843893115443    1.70959609022182    9.84967561224666

