78
CSD_code = UCUKEK | q = 0 | S = 0 | Stoichiometry = C31H40Br2FeN4 | MND = 4
Fe        6.04814028489765    1.15235084985989    1.99238120160802
Br        6.34162403369302    3.04445123438585    3.22504857935622
Br        5.60091367869833   -0.27393419675674    0.23048393847737
N         5.33827510541336   -1.14425482578284    3.60410407990629
N         3.98507017853442    0.46743551675919    4.03835192493646
N         7.60431667079786   -1.08889848030970    2.95653619441840
N         8.90675841189316    0.59067467972545    2.64178507105009
C         5.06416124150115    0.14692496902432    3.28184873278476
C         4.43970256074347   -1.62286525347201    4.52355775902269
H         4.47624851664528   -2.62564095981584    4.89615472297993
C         3.58906573579425   -0.61109805901766    4.79246565359850
H         2.73712308558465   -0.56673506001804    5.43831680630910
C         6.42046252223544   -1.90051799060266    3.03557843555686
H         6.62263716941024   -2.77029637825633    3.66879731704979
H         6.14075712457676   -2.24383276518308    2.02743780368385
C         7.60677633792760    0.21222399012681    2.56550238621668
C         9.69128949160068   -0.46258398153581    3.04694375514270
H        10.75304920408879   -0.37165189406151    3.14366032916007
C         8.87457332868210   -1.51719552954022    3.24784046837108
H         9.08686884927389   -2.51866404834776    3.56041273675423
C         3.33095664584989    1.72629607356678    4.13077284832998
C         2.60254483517070    2.21112833949522    3.04146515806297
C         1.93108771587440    3.41857944382760    3.18254628469215
H         1.36972556492981    3.81544993263470    2.35095731008467
C         1.96993623495964    4.11805538613188    4.37140639694764
H         1.43851020171365    5.05329626654446    4.46544245578572
C         2.69863560864904    3.62726959717455    5.43661139813086
H         2.73402262844322    4.18849715236928    6.35677405432179
C         3.39620427554328    2.43189054084735    5.33798056676106
C         2.54503801205067    1.47828953999960    1.72257850596511
H         3.06549446643526    0.51930760879012    1.81544442860065
C         1.10391801393818    1.17751489665560    1.30810238084189
H         0.59110370052621    0.62307358258247    2.09169358236649
H         1.10097768089667    0.57691491404848    0.40144721071470
H         0.54865051549500    2.09159170493267    1.11442776213985
C         3.26131966773234    2.30146958228915    0.64946717832807
H         2.76209172039478    3.25358276999649    0.48621652872215
H         3.29208198292224    1.75337821634550   -0.28928546643675
H         4.29163851198065    2.51659160213064    0.96437391391726
C         4.21476096235887    1.95273992603503    6.51465901416668
H         4.78215532691825    1.06428469862739    6.22339102094235
C         5.22746411007698    3.01957380370964    6.93685695174288
H         5.80546025236182    3.34402986710935    6.07673635695914
H         5.90618593814360    2.61170840554825    7.68252425274857
H         4.73197782939719    3.88612027093703    7.36512428045771
C         3.30600470822325    1.58146408855729    7.68992071285372
H         2.74718512766957    2.44957221526728    8.03036832751251
H         3.90281088584607    1.21057360195338    8.52031425807562
H         2.59250675452717    0.80962113803037    7.40802306913237
C         9.44963596998833    1.88556219019760    2.41869144862310
C         9.98696173238761    2.58391205667564    3.50637050082117
C        10.57359180265791    3.81824477672705    3.26688466051766
H        10.99492875697570    4.37468328086763    4.08897123239614
C        10.61502931117089    4.35322400177532    1.99460284938823
H        11.07044421377874    5.31813523188412    1.82897348818171
C        10.06310763825885    3.65986352211774    0.93681561860635
H        10.08769441782318    4.09162285306292   -0.05168275906180
C         9.47812372816535    2.41454884506706    1.12597682993261
C         9.92327620164870    2.05517569068920    4.92085930972651
H         9.33477294502787    1.13351876907073    4.93718946827187
C         9.22036380766314    3.05781299360450    5.83870408205454
H         9.81805999306775    3.95452052591589    5.97438379865139
H         9.05028653933357    2.61015665638830    6.81531595314591
H         8.26336859310327    3.34355141708297    5.41241150326258
C        11.32697945052477    1.73947937297296    5.44497024363397
H        11.82926229039425    1.01125615109363    4.81123699393744
H        11.26638470688365    1.33378644296389    6.45246813027769
H        11.93623734404288    2.63927576794276    5.47394092856205
C         8.87593301316626    1.68760257054331   -0.05254726560971
H         8.53586587342642    0.69667340495553    0.26623463398447
C         9.89916896001465    1.48200792806638   -1.17049483865688
H         9.45894549041726    0.88342198026286   -1.96459212908664
H        10.77696751931578    0.96210652427686   -0.79173645391985
H        10.21801110029005    2.43064740796647   -1.59451977848058
C         7.65924096866218    2.46242040339984   -0.56410232288859
H         6.93428925643321    2.60708920154781    0.24853624909370
H         7.17398644429687    1.91525776371911   -1.36899433068750
H         7.94501852007651    3.44648528583149   -0.92791668392287

