55
CSD_code = UCUNIS | q = 0 | S = 0 | Stoichiometry = C26H24N2OPtS | MND = 4
Pt        2.19053225078654    4.99322595380607    1.89499204604117
S         1.21359453634926    7.69846010932028    3.65565605082096
O         3.10446718121735    3.24654022902595    1.38227658520171
N         1.71898784904005    7.74210997420068    1.19367256301272
N         1.55381209892432    4.02886623446354    3.67929678807498
C         1.61751610069269    6.85522539025517    2.21169918777529
C         1.21420017452100    9.23202415754554    2.83379579290279
C         1.51429683031410    9.06817675068772    1.52215778353053
C         0.91722964806065   10.48931633202599    3.57390157488130
C         1.67100407548231   10.20528728881619    0.57010730868816
C         2.11399266016835    7.15576112374757   -0.03780925152308
C         2.55117320262959    5.82479610436708    0.11118211326891
C         3.00278069947303    5.16115927277221   -1.02195908736590
C         3.01654810637612    5.78529872918680   -2.26005281244010
C         2.52953106922420    7.07271797521729   -2.39022308883377
C         2.06620383805130    7.76489475454165   -1.28214309326858
C         1.26711413103150    2.21640704337973    5.31223966076224
C         1.88917863601806    2.82460062339417    4.07741446350815
C         2.79210521457521    2.00593922312125    3.38466209966051
C         3.32589650702744    2.24678468811428    2.12659865060500
C         4.22756002510262    1.17476907093718    1.54438010647172
C         0.60366164656252    4.77704457134272    4.37987967114806
C         0.83153012232762    5.21778265802857    5.66656445245540
C        -0.10910186894820    6.00736595054270    6.33537685566834
C        -1.27923293316529    6.36220255926582    5.72484490945436
C        -1.55299134850580    5.94349089221210    4.40587615632942
C        -0.61063876889716    5.13621994929359    3.71733490705764
C        -0.89765342591077    4.72848377616790    2.39667974282292
C        -2.05587861438551    5.11720299470243    1.78064232679177
C        -2.98323065821068    5.92249830568018    2.45733960070915
C        -2.73836758967395    6.32133947920235    3.74121330419225
H         0.63817077195469   10.25144986811217    4.59642232954943
H         0.09571201479316   11.02989456836160    3.10548048626233
H         1.78974607404992   11.14259551768658    3.59813649939693
H         1.71094351895047   11.13441536187850    1.13208328065072
H         0.82992414125695   10.26386237918168   -0.11981567271926
H         2.59358686691885   10.10296958013004    0.00274654395084
H         3.35413924532015    4.14329413777639   -0.93285322751065
H         3.38662316456858    5.25935594269851   -3.12851340183662
H         2.49971369779747    7.54851766196721   -3.35957787646833
H         1.65266673051478    8.74695405761764   -1.42782450420026
H         1.87375126060087    2.44667751230047    6.18745761677735
H         1.21803919977561    1.13496620192427    5.21252563669930
H         0.26462503842253    2.60479773958651    5.48022352488827
H         3.04696479180631    1.06464372152282    3.84813500278710
H         4.64782904884251    1.52217663456983    0.60410791275529
H         3.65709723841987    0.26545852775791    1.36380294281559
H         5.03300255091908    0.94151815728217    2.23684833452455
H         1.76312516391127    4.96948628838862    6.15363878899435
H         0.10411158221384    6.33597855752642    7.34220612249705
H        -2.00747288766954    6.97282521615203    6.23859232380569
H        -0.19461746709639    4.08839708418644    1.86499695148650
H        -2.26276212129359    4.80310727609613    0.76832135370235
H        -3.89219420181259    6.22274476678551    1.95620209991481
H        -3.44904681969560    6.94152107412247    4.26945956295514

