77
CSD_code = UCUQUE | q = 0 | S = 0 | Stoichiometry = C28H36N8NiO2S2 | MND = 6
Ni        8.55217251548274    4.30639177105568    6.10433823332324
S         8.47616023466809    1.60088163382879    9.58239598119918
S         8.45692579281435    2.71300158102289    2.01151991633891
O         7.67287566510818    7.79481067664225    2.47880084849518
O        10.03416581399802    6.54680342731159   10.47429066454882
N         8.99798811707549    5.69503250382010    4.86708929055400
N         8.38760842807248    7.09843779292361    3.25138732594295
N         6.47817866092884    4.60057534369800    5.07722294964703
N         8.42640452715709    5.53360240559835    7.59521971150493
N         9.24792918274059    6.31394549769058    9.51338837532385
N        10.56967621514960    3.87461115241169    7.17205487287514
N         8.02239361788040    2.93785338390970    7.21305125906620
N         8.79124587517331    3.11955410003957    4.72010713558667
C         8.00734231655427    6.14420664971193    4.11952379852458
C        10.21416165261729    6.44053047702650    4.54476363293908
C         9.85721152653513    7.14916710453206    3.20542603001879
C        10.48077485202166    7.44550703509267    5.67593193347210
H        10.61298955432252    6.90423711119168    6.60891866010802
H         9.64427577588340    8.13244978298482    5.78616930893948
H        11.38519694668761    8.01322144489257    5.47647046022738
C        11.42039672057711    5.51230324492054    4.43064104555742
H        11.65936484457851    5.11669416060220    5.41279860102841
H        12.27978141520286    6.06382319691507    4.05730399117974
H        11.20875594165645    4.68023793271875    3.76685235477120
C        10.32789036506816    8.58704976262571    3.03601786357960
H        11.41284762241695    8.62556733116386    2.99796096265054
H         9.97278416405623    9.22862122044820    3.83689801271560
H         9.92880829967775    8.97335634687471    2.10075095779319
C        10.24477048376862    6.34202903154317    1.95819709415572
H         9.89427354947335    5.31465589176873    2.03087277519296
H        11.32013245748101    6.34644157097329    1.80970285174829
H         9.77144331647174    6.79918369120197    1.09108166576378
C         6.67622218669701    5.55318913963242    4.14587539603816
C         5.71644619073206    5.88859163807067    3.19669069033846
H         5.92402560956656    6.65854325958549    2.47140787273877
C         4.51476225860608    5.20113223661435    3.19919514603860
H         3.75030493744083    5.43504028774828    2.47390289236511
C         4.32849996072109    4.20262476965297    4.13156815170547
H         3.41504629116782    3.62878057657534    4.15799726533773
C         5.33722917841986    3.92037249451293    5.05763264686046
C         5.11396198043226    2.82061327244224    6.04213341526236
H         4.72979461227146    1.94216499763118    5.52798928912550
H         4.37567949540669    3.12114953767281    6.78551176560149
H         6.04450171765561    2.56529384175952    6.54077046254512
C         9.42446647862553    5.49906319007886    8.46130472448738
C         7.33560122851418    6.32164058454205    8.16649739539460
C         8.00896781443428    7.08932586806667    9.34278757629439
C         6.26785809421935    5.32755991828747    8.64851311091308
H         5.41818281946651    5.85135920969640    9.07681120102222
H         6.67930206924676    4.63618707972752    9.37969872004788
H         5.93550675814899    4.74662674756506    7.79326003457131
C         6.68830392373780    7.24889069683844    7.13822614252130
H         7.42462286822082    7.84672621225680    6.61069516050172
H         5.98509822731709    7.91235523830031    7.63504211331642
H         6.14307704092176    6.65869947269431    6.40934232877156
C         7.24946464691547    7.11468724153539   10.66482183301363
H         7.87932304796578    7.58763588573150   11.41530703580585
H         7.01247361841127    6.11389627292715   11.01203008624075
H         6.33207406133631    7.68742797686525   10.56277377973102
C         8.45133757276745    8.51823034623217    9.00226186102648
H         9.09473390107982    8.87376529975897    9.80531574021700
H         7.59657684252431    9.18223080307019    8.91988987164915
H         9.02098644938722    8.54555266010846    8.07704242402482
C        10.56745557802573    4.60707456260769    8.29852753213453
C        11.54207124993891    4.47349458686026    9.28270882725719
H        11.50519210649545    5.09101203476126   10.16479914179885
C        12.52925003221996    3.51993344222681    9.10535867330871
H        13.29510474457976    3.38306603384950    9.85367963833914
C        12.49831299063682    2.73468523645428    7.97080389953985
H        13.23288712438698    1.96020065527999    7.81459677095914
C        11.49936524835199    2.93603548354338    7.01604716350470
C        11.45403087690312    2.07472392988469    5.80049620777424
H        10.42983123992224    1.75681196573856    5.61891114280520
H        12.09411913681999    1.20561574582434    5.92249258706684
H        11.78121769507174    2.63198413665106    4.92493839326292
C         8.26899636722730    2.38456113680416    8.22522284565241
C         8.61130727577434    2.97836003618117    3.56397247831060

