30
CSD_code = UCURUG | q = 0 | S = 0 | Stoichiometry = C14H9ClFeO3SSe | MND = 8
Se        6.80143261011560    3.68552659689671   -4.62496848457554
Fe        6.65174318328013    1.37076434398506   -4.98530079598504
S         5.27630250456921    5.29539581486339   -2.45094349804362
Cl        1.73326501087734    1.38427883352207    1.74721011753082
O         5.36469295635589    2.64457339007843   -2.68092955181179
C         7.42897071267593    0.95383906797534   -3.47463431665651
C         2.79442412124094    1.77984723067012    0.44532371734195
C         8.27021012045046    1.30347859464131   -5.65309287916594
O         9.33550635218301    1.21048793417918   -6.04886094642226
C         4.49241265280241    2.42133361210283   -1.62811055388943
C         3.27057702852825    3.07034484687930   -1.51627145346440
H         2.98332475730809    3.82327737277811   -2.23242701804666
C         5.70066153555824    3.87193265206691   -3.10925157082260
C         2.42253131659368    2.75001909930299   -0.47195805934818
H         1.47467690243827    3.25446424877868   -0.37225489230994
C         5.04873394872553    1.41549786811025   -6.61684478967125
H         4.93135167997919    2.13314909149584   -7.41123192336288
O         7.96593902081349    0.65519794074524   -2.51316213070582
C         4.00785953604466    1.11843019785507    0.32646527041468
H         4.28622528965687    0.36359646040135    1.04412360091929
C         4.35622156350676    1.44249874836776   -5.37168473607492
H         3.64921363859500    2.19681767727424   -5.06712034633401
C         4.67828881823784    0.27471476245892   -4.66411254958294
H         4.24876170769917   -0.03669751365323   -3.72659090917529
C         5.77002197231303    0.21027553507224   -6.68657362771346
H         6.30824385162424   -0.15886859094347   -7.54400942306844
C         4.85797165521114    1.44128172308538   -0.71298350760447
H         5.80942568060089    0.94543051372414   -0.82235093283443
C         5.58101015854346   -0.48431440231600   -5.46060477270232
H         5.90269970019290   -1.49277368268617   -5.25374897820122

