55
CSD_code = UCUSIX | q = 0 | S = 0 | Stoichiometry = C26H22ClN5Pd | MND = 4
Pd        9.59743399493843   12.43119713178762    2.12570715478233
Cl       10.67920492224094   10.67807589151231    3.14993236297194
N         9.74112744851093   11.69803094597506    0.29450187565441
N         7.69824216421076   13.85324134007572    0.21179955125594
N         9.13284917317100   13.43280334163452    3.82261620345409
C         5.76315564559479   15.23970487903638   -0.59020172251530
H         5.80995652503887   14.93179355936087   -1.62504617244062
C         8.32339515045290   13.70844686883426    1.39863253619558
C         8.95575220354386   11.97325716609601   -0.78558677698456
C         6.60226955417475   15.16795400977086    1.71008271445752
C         6.65462210572752   14.75528519926096    0.35078216915712
C         4.80294770815749   16.13977073194476   -0.16419963105052
H         4.09361408816460   16.53469911014980   -0.87628371889778
C         7.66666658335663   14.47148594632363    2.36976286380424
C         9.08380742382632    6.81408834539165   -1.65180832135294
H         9.16445864106256    6.85690355015408   -2.72922045655258
N        10.07151433994771   10.13429377214275   -1.08635770890171
C         8.20194558662429   14.32489349106672    3.67237909424306
H         7.87384113316529   14.93306077936118    4.51530521275976
C         4.73484370865389   16.54635185601633    1.16602711738849
H         3.97028036826822   17.25033561581538    1.46045156002523
C         9.17042798787422   10.94339064290843   -1.67987356886746
H         8.75793764446080   10.74758742566351   -2.64699946144043
C        13.08582864120314   14.82379293707191    3.58637943369111
H        13.66384113096233   14.75313119646944    2.67656839304023
C        11.17526278901832   14.16319703414639    4.89262487020128
C        11.92570095493948   14.08324353032329    3.72258677034904
H        11.60924492370645   13.41474093756863    2.90567704152205
C         9.90151253033948   13.35760494117054    5.04121319263050
H         9.32195856773280   13.73137858870376    5.89671904347801
H        10.16729221706648   12.30542429668306    5.21235425341707
C         5.62356807621587   16.07043925659300    2.10956346138319
H         5.56418928377410   16.39266995378060    3.13840482530406
C        13.51248154703856   15.64953369562853    4.61379403651206
H        14.41977770375718   16.22556449050968    4.50579789335778
C        11.60825530873211   14.99468425119801    5.91601778902373
H        11.03368284593490   15.06396415071709    6.82922192937621
C        12.77248609895158   15.73116309325079    5.77995320590567
H        13.09971842772876   16.37180284283013    6.58602674454912
N        10.39560046014962   10.61017221957264    0.09494867795591
C         9.63596533070725    7.69172986896831    0.51603250473804
H        10.14049458150084    8.42455890503548    1.13015053012686
C        10.56583006466674    8.84912221313121   -1.50614381973191
H        11.60299984708602    8.77723470446746   -1.16663880935831
H        10.52750990534677    8.78933140979608   -2.59557565100646
C         9.74247525064073    7.75012712260922   -0.86875749352251
C         8.87517924707211    6.69907131396308    1.10702260077985
H         8.79470115921360    6.66172867332283    2.18233045306470
C         8.22391544083445    5.76019469382133    0.32359713416658
H         7.63264261852675    4.98446249263359    0.78676406434378
C         8.33036823918475    5.81710648322192   -1.05525002728123
H         7.82419204834030    5.08785532556443   -1.67024443732215
C         8.10785181483622   13.19777217182662   -1.00428278175332
H         8.68238417643896   13.90173635123087   -1.62985990963625
H         7.21699466721341   12.90360925389688   -1.57229879643913

