85
CSD_code = UCUSIW | q = 0 | S = 0 | Stoichiometry = C40H34ClF6FeN3 | MND = 4
Fe        0.48232578522884    7.05928626793876   12.75779501925098
Cl        1.66156674673147    6.13063359152842   14.04275445770585
F        -7.22243281044303    9.20586258300218    7.82789108998922
F        -6.27209867703565    7.28642798543503    8.02008230064958
F        -6.90097076105549    8.35247691501563    9.77572117848043
F        -4.00520067709265   12.48591045836632    6.39079044230297
F        -1.93016728574888   11.95042747625393    6.56663597703995
F        -2.86259110131679   13.14768030900107    8.08761117350029
N        -0.19561402458763    8.82454362766785   12.31381187499417
N        -0.56444165359951    6.58096050003612   11.20561147303474
N        -1.31710991414106    6.91273491107160   14.33257656268598
C        -0.47922780931224    5.30016357453746   10.83097167063568
C        -1.32684100478115    5.05341762110577    9.73062415105023
H        -1.43451207860577    4.10996855630112    9.23027539719923
C        -1.95107102942311    6.24074547127019    9.43112007289452
H        -2.64504644278929    6.42909021978449    8.63522494747715
C        -1.47536365147567    7.19373420561561   10.36859998430913
C        -1.77288147735083    8.55246683773880   10.48669085528472
C        -1.14083259378153    9.34105064837680   11.45158732389199
C        -1.36181590878187   10.70547435277123   11.77149862712591
H        -2.05078484714911   11.36639302175764   11.28276136791280
C        -0.53878266568989   10.99585227789133   12.83168224710268
H        -0.42355059481409   11.93724904272493   13.33312118130266
C         0.16911396204161    9.81447056448403   13.14096298651612
C         1.18197804445486    9.64764379892034   14.19410031432249
C         2.89928100827488    9.18058368814771   12.40789500588045
H         2.55713999585197    8.20865120411112   12.02749135166513
H         3.97988876670186    9.22341479905680   12.29808308245441
H         2.44534732156269    9.95633928292568   11.79380698719069
C        -0.56118626366973   10.19013755632849   15.93989957488530
H        -0.67063681694369   11.27439933362328   15.97334884698923
H        -0.78643016229626    9.80081622640524   16.93053485395720
H        -1.28851050889439    9.80190246558182   15.23090453136824
C         0.83850697355723    9.82907553847226   15.53637609175544
C         2.50715489315530    9.34512559260155   13.84852062658413
C         3.45630963732220    9.21680425921869   14.84722842682827
H         4.47783761720373    8.98510795947340   14.58058430524243
C         1.81420459756834    9.68145058828471   16.51195976938742
H         1.54068535061566    9.81161651787805   17.55007354759513
C         3.12506019966400    9.37301168919186   16.18691460175145
C         4.16895653336679    9.19821585498915   17.24725297289488
H         4.43523922380591    8.14506157242463   17.33639338172427
H         3.80802258067259    9.54466821853223   18.21238139769965
H         5.07210419035267    9.74910509490288   16.99095512414299
C         0.42854886999190    4.33985366249611   11.48719148442727
C         1.78374048297519    4.32760235540313   11.14422316957776
C         2.31005849543255    5.32061497299773   10.14917986417729
H         1.82230475686514    5.18643090481480    9.18399623900534
H         3.38336680708487    5.20804971267741   10.02028709727461
H         2.09991171299221    6.33984972064034   10.48475350533089
C        -1.51390205505562    3.48731891387455   12.82011691756479
H        -1.73149397853610    4.45172098304246   13.28019362022137
H        -1.75227973239444    2.69852501605782   13.52915876984574
H        -2.15572245284057    3.38272498681387   11.94672229143984
C        -0.06849521236870    3.43251613928546   12.42495916239749
C         0.79615506975087    2.51364067159706   12.99750025305024
H         0.41532827777224    1.81311307331632   13.72768834178817
C         2.62037429035480    3.39378228404066   11.73300166836228
H         3.66888925364474    3.38186962090406   11.46993335959954
C         2.14158831859818    2.47930627254318   12.66045172207891
C         3.06753923962133    1.49788545951366   13.31223373026630
H         3.48174237366680    1.93214788305583   14.22275936147219
H         3.89471944896928    1.24618107821354   12.65248558452600
H         2.54019609321988    0.58607571712091   13.58327528118434
C        -2.77436625594501    9.15384902300030    9.59976829248158
C        -4.04438875768673    8.59320908707320    9.48402987849691
H        -4.29849414418485    7.71508554255929   10.05829698339323
C        -4.99077311882427    9.16810915821364    8.64940529046417
C        -4.70284000921748   10.30671953091616    7.91101554664713
H        -5.44321987087184   10.75004829351308    7.26396535703987
C        -3.43497027337940   10.85855153073629    8.02794466159596
C        -2.47813155456348   10.29606796591315    8.85898045599586
H        -1.49358863230990   10.73411242127270    8.92069383525826
C        -6.34365262173353    8.51605319572285    8.56179464036316
C        -3.06816358626203   12.10232148400821    7.26451203311523
C        -2.54106832434213    7.18659327050060   13.88997679933541
H        -2.65079168376816    7.24202779985070   12.81642874291009
C        -3.62335612093904    7.38995555130378   14.72908981755270
H        -4.59496788986675    7.61333640332758   14.31748233963776
C        -3.42846369192301    7.29902104227903   16.09860892275378
H        -4.24854253211981    7.45182810796712   16.78449081351371
C        -2.15727624205817    7.00597698704294   16.56417179648288
H        -1.95708186628754    6.92021153974948   17.62057602418518
C        -1.13574888329375    6.82487708699464   15.64565095500112
H        -0.12970666742453    6.59828328879859   15.96809823346976

