117
CSD_code = UCUTIY | q = 0 | S = 0 | Stoichiometry = C56H48Cl2N4O4PdS2 | MND = 4
Pd        3.28059881335832   -1.51977873787343    5.56263052070401
S         3.07388922978167    0.50699868050447    4.55183283101908
Cl        5.54740294705505   -1.42029240099353    5.13683556126205
O         1.22543720581865    3.35081149285384    5.33897073274814
N         3.49629277970160    3.49312063009728    5.49046250269915
O         2.34175910079931   -1.89407461573241    3.10205421873764
N         0.29766355843394   -1.29471773012213    2.30486411344795
C         2.40347724493952    1.39113382187551    6.00255175780707
H         1.41816123343380    0.98104493395277    6.23517605688879
H         3.09576193520111    1.19401198383343    6.82480135457891
C         2.30002742922201    2.85197241076561    5.60378099225089
C        -0.82887587990351   -0.43521398489522    2.47615135117719
C         4.70022887488682    2.86389050862622    5.93864971321156
C         1.57786876980788    0.35031554257520    3.53336893027891
H         0.72457788290355    0.64516240396428    4.13733510131656
H         1.67681626955160    1.03324889393345    2.68558810754057
C         0.12177698304542   -2.40455541307159    1.44753400866772
C         1.44745960621898   -1.07430444750141    2.99451760196680
C         3.62874392304057    4.79068354642824    4.94383877856112
C         4.97731994511132    2.78201961111377    7.29750986063627
H         4.28407435480498    3.20598406855841    8.01000817867747
C        -1.44865187176077   -0.35243910740830    3.71837255505637
H        -1.05691754121250   -0.92733656664703    4.54664424933454
C         1.19493405217986   -2.95324360145643    0.75206117525106
H         2.18843289578690   -2.56170039154338    0.89492078517533
C         5.58765973487020    2.33732521969345    5.01097150966344
H         5.37013500244089    2.42160834676833    3.95693536829855
C        -1.15677845346794   -2.92001870549470    1.24919405972373
H        -1.99526517295503   -2.49860585642731    1.78255030667876
C        -0.28506030763266   -4.51888489002000   -0.31608529562750
H        -0.44180877728355   -5.33989581486364   -0.99923512808589
C         4.66017166859863    5.61240981299031    5.39162279848233
H         5.33231060200339    5.26099758468897    6.15993730597985
C         2.77423853323986    5.24997781199211    3.94709471364832
H         1.97294873098190    4.62416508294891    3.59147184423124
C         0.98668060717524   -4.00645878261320   -0.11980718720399
H         1.82625113334744   -4.42512038134986   -0.65438104741064
C        -1.31381052346482    0.28842502084045    1.39582473214369
H        -0.83037634939311    0.20150734151902    0.43373731512796
C         7.00134309673990    1.59686869773546    6.80111660528888
H         7.89012171980389    1.08750640073174    7.14071122922937
C        -1.35463368153854   -3.97002151057486    0.37177502333415
H        -2.35037670938476   -4.36266661381291    0.22875397963413
C         6.73212525298058    1.69288359385420    5.44702003864815
H         7.40512864812539    1.25484520642615    4.72705964056861
C        -2.54560617207513    0.47545381053875    3.87527230790936
H        -3.02535930351517    0.54637424489691    4.83927423453351
C         4.82420864237698    6.87585623347587    4.85657563640409
H         5.62621479835259    7.50424966187676    5.21465146475449
C        -3.02894492155154    1.20591798181921    2.80140980514512
H        -3.88559373092307    1.85008197295199    2.92894898597822
C         6.13264682776992    2.15439094569200    7.72413851384684
H         6.35000241872011    2.09987001428515    8.77852091089185
C        -2.41553501941723    1.10932565322577    1.56369354289576
H        -2.79246310838796    1.67612435243424    0.72574605618131
C         3.96679299505833    7.33591417030549    3.87170507162515
H         4.09537439821844    8.32439263376330    3.45729876762410
C         2.94503144968719    6.51778579742400    3.42201954326255
H         2.27404543051322    6.86495133261348    2.65038249729426
S         3.48651504079091   -3.54539200937833    6.57569523566607
Cl        1.01442138172604   -1.62038115917963    5.98876706623855
O         5.32655888543652   -6.39592044295489    5.78854178688759
N         3.05485705574638   -6.53113536668129    5.64414912322107
O         4.21514840217603   -1.14536318633789    8.02511559480997
N         6.25767744963478   -1.74247021206114    8.82750673595713
C         4.15282995503082   -4.43339429971785    5.12547802092003
H         5.13895099182866   -4.02654335440374    4.89067744614785
H         3.45989490242023   -4.23569616044240    4.30392496891191
C         4.25282870542264   -5.89402878457966    5.52609413917587
C         7.38557375375311   -2.60082699564389    8.65928462728501
C         1.85132662627467   -5.89947106533058    5.19840259549605
C         4.98504303232200   -3.38708132622153    7.59036018178907
H         5.83784272332391   -3.67483416957653    6.98222847225033
H         4.89213083301148   -4.07427260312094    8.43533581776422
C         6.42915162965194   -0.63382591704309    9.68732086226126
C         5.11055448523957   -1.96377262483717    8.13386123477679
C         2.91997856056968   -7.82703810211769    6.19417307281788
C         1.57129132723330   -5.81718210471405    3.84018804001706
H         2.26216239673268   -6.24218181981687    3.12599374972513
C         8.01078647243448   -2.68052358317596    7.41958598748565
H         7.62222653531475   -2.10420437217293    6.59082409740977
C         5.35273484778998   -0.08721207125507   10.37941825482236
H         4.36021353182955   -0.47956195740845   10.23209336035866
C         0.96662734855045   -5.37174412718404    6.12806086993985
H         1.18653216044269   -5.45628715817833    7.18159319915388
C         7.70638454552963   -0.11741354637940    9.89141310010063
H         8.54748415666798   -0.53720288093076    9.36088812140058
C         6.82698300017344    1.47839687412082   11.45553671976421
H         6.98014048503299    2.29862137366752   12.14045287207582
C         1.88493946980597   -8.64675752141852    5.75102627747321
H         1.21191602940620   -8.29525176143312    4.98352690707832
C         3.77561531860065   -8.28648107546523    7.18985510321743
H         4.57962785014807   -7.66218716192755    7.54199078303603
C         5.55651298262854    0.96493489817477   11.25359566283104
H         4.71449866004277    1.38196769110111   11.78557477232362
C         7.86623277231397   -3.32647063776233    9.74015140810253
H         7.37847534123809   -3.24201117083176   10.70026903191774
C        -0.45023001621961   -4.62960806651330    4.34114329496593
H        -1.33913447181311   -4.11910085392590    4.00362705412716
C         7.89975764707732    0.93155464939474   10.77112557234119
H         8.89455195861648    1.32494549598198   10.91861076400204
C        -0.17808284391552   -4.72601729244540    5.69464137523226
H        -0.84897344981454   -4.28724553908064    6.41613375511359
C         9.10906782608832   -3.50723171453560    7.26575454637596
H         9.59311325730616   -3.57585321815384    6.30373075240553
C         1.71845565724191   -9.90835302410387    6.28964511756919
H         0.91366607787063  -10.53525638947573    5.93520490066492
C         9.58825106595661   -4.23960464333873    8.34019887761656
H        10.44598481168654   -4.88280804845609    8.21510572252760
C         0.41581725427960   -5.18801633099861    3.41620225125258
H         0.19627226805728   -5.13319667255015    2.36230018901881
C         8.96930198822594   -4.14621044211532    9.57538730275849
H         9.34293564498454   -4.71453447148582   10.41377280159848
C         2.57704248623489  -10.36861941318627    7.27341745077700
H         2.44649781155222  -11.35567038245753    7.69057332798600
C         3.60243157237367   -9.55251301024842    7.71844408218630
H         4.27432460602181   -9.89973864171204    8.48925937219821

