67
CSD_code = UCUVOF | q = 1 | S = 0 | Stoichiometry = C21H39ClNO2P2Pt(1+) | MND = 4
Pt        9.88838604287837    5.19081552735795   10.72181157559034
Cl       10.99231138456385    5.05075584991590   12.69328171584506
P         8.88020652396250    7.21477123898622   11.08410550527877
P        10.60650181518389    3.20527696031247    9.83532182047981
O         7.97483695395114    7.29290411197637    9.68081184254968
O         9.87793353562635    3.32923359877754    8.33555035176212
N         8.90537299366029    5.31431799944364    8.96886022704644
C         8.10268685511434    6.36144822977037    8.73111021461303
C         7.41142993465360    6.47785183964237    7.53218626243488
H         6.77490579749303    7.33032633159140    7.36903354890461
C         7.56860398461621    5.48288021812430    6.58110069567409
H         7.04328853710764    5.54927834839981    5.64232453629455
C         8.39885183486881    4.40282523704754    6.83292554383874
H         8.54295533842354    3.61249231893980    6.11663280488478
C         9.06127128147282    4.34839740756932    8.05240760377330
C         9.95282633754955    8.73106729209951   10.87539980053168
C        10.74230650584739    8.44629259471486    9.59289729219689
H        11.52456689329306    9.19131282377612    9.46534652525595
H        10.10051190171878    8.47985017794706    8.71325047039310
H        11.22189468538793    7.46311318493465    9.65038317667006
C        10.91995959015046    8.78801801823002   12.05480327653059
H        11.69683866274003    9.52388830847036   11.85837291875902
H        11.39716878637015    7.82020863617399   12.20858831071338
H        10.41731183869671    9.07180711691492   12.97445324225346
C         9.14549432185201   10.01517829354168   10.73861529589362
H         9.80055388671226   10.82244947410025   10.41612047451387
H         8.70573533955582   10.30617636414686   11.68902510311063
H         8.35409713073445    9.90291729019171    9.99976463222506
C         7.50825704736631    7.27415800233407   12.34908909080885
C         6.97249258318166    5.83750427601204   12.34114595390725
H         6.17685637698803    5.72929655426269   13.07519131091838
H         7.76987474199962    5.13595395613655   12.60396655938683
H         6.56338620297527    5.57554181929321   11.36395353191589
C         8.11959109222147    7.58302547290564   13.71172456956777
H         7.39926264932172    7.36329668890442   14.49706357786729
H         8.39039292294587    8.63254140494963   13.79442020586471
H         9.00559631614866    6.97219522854557   13.88344831653163
C         6.39893825397586    8.25620385533197   11.99174358546380
H         5.58053518071742    8.14061403471639   12.69988073307400
H         6.01197536110261    8.06737948796881   10.99299913317942
H         6.74121857915485    9.28521472042532   12.04267850116104
C        12.39509918943085    3.10131183941035    9.30962100126057
C        12.74277114605720    4.55957834725059    8.98771834125879
H        13.78834432966723    4.64131931856673    8.69851544531611
H        12.58818657123426    5.18763430536534    9.87034522951608
H        12.13731606499351    4.93581243898647    8.16151740421660
C        13.22448082873053    2.63146468902974   10.50016379345898
H        14.27948224671638    2.81820377639603   10.31030945086064
H        13.10223406297281    1.56498363007342   10.67068878108162
H        12.94155442439813    3.17074790729593   11.40388997586271
C        12.61377943639708    2.21965006689528    8.08590208653586
H        13.64811076990904    2.31370489026150    7.76039270544836
H        11.97037890468885    2.52139829615599    7.26249569906326
H        12.42755026366342    1.17309801737474    8.30695234566881
C         9.78421567287646    1.65522264235296   10.47851368916423
C         8.30067636448758    2.03426105424059   10.54862477041943
H         7.74257854635773    1.25610795879649   11.06469045843292
H         7.87121647550143    2.15148864316588    9.55422839429708
H         8.17128489949031    2.96692500016505   11.10841681670786
C        10.30193342408845    1.39835136104406   11.89114600154282
H         9.68403568363853    0.64715988943138   12.37860087050391
H        10.26482410937432    2.31017901407151   12.48713932598139
H        11.32495308099010    1.03447894483588   11.88450051693335
C         9.99149772653246    0.45178567500849    9.56820620671335
H         9.32127666190918   -0.35086122627227    9.87036187613467
H        11.00909351310853    0.07645406825572    9.63819716919025
H         9.77593960050214    0.70335915696431    8.53137180676091

