74
CSD_code = UCUYEY | q = 0 | S = 0 | Stoichiometry = C37H32NiP2S2 | MND = 4
Ni        3.14691143918907    2.46701489598256    9.50576692525759
S         1.72540710116281    0.80008212109579    9.67484462127265
S         2.54335813721538    3.34074576770722   11.41524103507893
P         4.84812590716219    3.75915643672821    9.26721046600460
P         3.49907060236973    1.80945805026525    7.47215556476368
C         0.25716526443291    1.48646123317704   10.51351914218092
H         0.05616138497839    2.46089825365066   10.06655109050247
H        -0.56297177252993    0.81115944663324   10.26513402829872
C         0.41681428388294    1.60785058083472   12.02738693508991
H         0.19424847256699    0.64791960712765   12.50098970327247
H        -0.30465841549413    2.34527566149378   12.38880679206028
C         1.82628409993275    2.01929353090995   12.44195386453326
H         2.50235256225934    1.16481439993802   12.39251401674316
H         1.82725890114058    2.41116428445874   13.46037855578638
C         5.31806603018107    5.01937313123289   10.48936292045136
C         4.37727595786772    6.01462409130759   10.74690192696690
H         3.44017495112562    6.00247248198568   10.20580468199263
C         4.63703219907342    6.98796370798452   11.69123220102303
H         3.90601874552532    7.75783649022765   11.88935735757144
C         5.83214530102471    6.96622611238587   12.39349007919332
H         6.03487416981449    7.72269453104659   13.13745039371450
C         6.76090142604200    5.96775259164127   12.15282749755592
H         7.68669671931017    5.94566224418276   12.70960507373024
C         6.50762529440580    4.99057086748199   11.20576533176357
H         7.23017761541842    4.20652370456581   11.02862258470518
C         6.12176654850086    2.46129152943392    9.43806830340043
C         5.72791319434492    1.29471629255844   10.09047528663228
H         4.70162616549911    1.21757827240988   10.48267471921790
C         6.61324626450726    0.24325503418234   10.23739016973272
H         6.30134656860754   -0.66160029010411   10.73780386717492
C         7.89817274338690    0.35256670060419    9.72912467439730
H         8.59218406141602   -0.46842903161796    9.83538201270398
C         8.29505720675865    1.51108616333723    9.07983892283890
H         9.29710295311359    1.59122451549244    8.68339754218786
C         7.41248253514613    2.56659077940084    8.93153703155419
H         7.72115298585991    3.46781395567441    8.41878043085045
C         5.36891842286689    4.47846878217300    7.67479328013718
C         5.84067102666233    5.77168524692437    7.66009547373512
H         5.78279423162696    6.37032220688487    8.55735575358290
C         6.42662853350252    6.32529189096156    6.51711036477549
H         6.77793274647224    7.34609973623961    6.54134091689209
C         6.60024985986361    5.55060009328560    5.40723374066521
H         7.11421877491909    5.93452589406788    4.53789118487743
C         6.11348661551892    4.22681118193872    5.36912747808954
C         6.32371881814925    3.43662001163659    4.22074245308106
H         6.87127965211567    3.86476683673542    3.39358990462247
C         5.84432302940951    2.16050443653390    4.15789783977901
H         6.02224210185472    1.54353029336426    3.28946889431306
C         5.06277900208183    1.66484383536519    5.20564802426431
H         4.63149034523185    0.67932587738386    5.10585382699410
C         4.82296910670361    2.40125227556841    6.34482980108261
C         5.41283769839268    3.68944250877479    6.48778540604173
C         3.33229269951258    0.06111723311034    7.02881051005555
C         4.43553752691944   -0.76262291922406    7.24500187690553
H         5.36933534528414   -0.32298167005630    7.57455290112383
C         4.33437817088490   -2.12427402252910    7.03661593821775
H         5.19211870874041   -2.76040326526363    7.20107655532927
C         3.12894220542095   -2.67387791362406    6.62839920527064
H         3.04824117461299   -3.73947406224007    6.47091951275778
C         2.02483584759363   -1.86031706560684    6.43667868940958
H         1.08189577140511   -2.29206577733748    6.13432671781726
C         2.11904813049642   -0.49570359599683    6.64375821653628
H         1.25286869345003    0.13755941201830    6.51809890449107
C         2.12699456500267    2.68968838315853    6.65253268367292
C         1.80653052824101    2.53061422285336    5.30866970909748
H         2.37383805284387    1.84380787739046    4.69572384085122
C         0.75877972526025    3.25081122082396    4.76482195057569
H         0.50234273235045    3.12117817620877    3.72321379437589
C         0.03808432139115    4.13843433576288    5.54897541277939
H        -0.77915846355321    4.69680057347540    5.11640694400981
C         0.36405076374376    4.31157416631236    6.88439707110152
H        -0.19563275646570    5.00579069512645    7.49412007217398
C         1.40640441280952    3.58889440290911    7.43395507858702
H         1.67046427348915    3.71177033943734    8.49863432170485

