25
CSD_code = UCUZIB | q = 0 | S = 0 | Stoichiometry = C8H8N2O2S4Zn | MND = 4
Zn       -1.18832034028932    0.87044372135150    8.34780228184770
S        -0.44263668580621    2.53643084556390    9.87190172416532
S         0.51695988091126    1.62341264812550   12.58430692244087
S        -2.89162883298069    0.22661241026377    6.81811700789405
S        -2.03308164872766   -0.73005410621696    4.08665181136648
O        -0.90249816157534   -0.47679495972370    9.74376176332318
O         0.14119828749011    0.52633295337073    6.94777033381973
N        -0.39257875427221    0.03141539316687   10.84428166731620
N        -0.39393993137852    0.06376380696586    5.83934378336226
C        -0.14436476046552    1.33040158435110   11.01775450543527
C         0.42684658657353   -0.06720791317642   12.94992636441465
H         0.75183105717369   -0.43354052741699   13.90046062139754
C        -0.08076425043088   -0.77150914926629   11.91721616049300
C        -0.33390883582363   -2.22814784306664   11.80092229400686
H        -0.06722111441322   -2.73585767456164   12.72205647205539
H         0.24446885461249   -2.63415787653604   10.97216428284532
H        -1.38550472907617   -2.39693334144059   11.57353653740775
C        -1.70433369702014   -0.11295131500174    5.66404795028760
C        -0.34044480386748   -0.72170332006523    3.71932421716526
H         0.00776321949937   -1.04814881252981    2.76249632819497
C         0.39048623094867   -0.27036493180582    4.75957085612182
C         1.85849692393816   -0.09635765306568    4.87809876487363
H         2.35245072186503   -0.38781380452477    3.95697746451179
H         2.23094714304921   -0.69773771985218    5.70623381083650
H         2.08397764006473    0.94406758509092    5.10807607441774

