55
CSD_code = UDABAC | q = 0 | S = 0 | Stoichiometry = C26H16N10NiS2 | MND = 6
Ni       17.58795041043883    5.82012606435004    7.64505534900293
N        17.69750317035666    5.76556370788098    9.45490213033141
N        16.55700443680320    7.97994605707641    7.80510677299836
N        18.72452934741164    3.67765595546353    7.36986136002045
N        19.44706068034720    6.73307120618404    7.51008374077573
N        15.82389731710341    4.82779448799971    7.76385108775305
S        19.19292456141708    4.88196613708759   11.60212842757610
S        18.54353332242456    6.20073530616723    3.36848411242382
C        17.90151276134444    6.02337961656211    4.80441823688342
C        18.36067971290381    5.37539651095029   10.34889432381913
C        19.75710147493962    3.75805777071351    6.54085898762100
H        19.60044874591195    4.29637696962807    5.61408389671670
C        18.87574104408949    2.96017387199552    8.48310862821259
H        18.00363318923894    2.87894790997229    9.11805888270158
C        21.00399692842713    3.19507501536770    6.82323479748030
C        21.16797010668016    2.48532398785927    8.01387833769441
H        22.12713238797255    2.06078680895563    8.26881135274397
C        13.32268168736968    3.60298822666223    7.75397501990255
H        12.34750167839411    3.13918956306087    7.75482360842974
C        15.55960428645093   10.58033944119880    7.85436720745360
H        15.18019884344689   11.59119157746975    7.88322556627424
C        20.49260183727689    6.14556518957139    8.07871405601292
H        20.30443987224324    5.44826658210118    8.88501688783030
C        14.83814683785776    5.31472392200198    8.50466797753917
H        15.05245903357237    6.18371516706456    9.11284724852414
C        16.46822541760101   10.14017297910672    8.81799555879593
C        15.59527169667399    3.74215938102499    7.02740859059331
H        16.42560839506207    3.37612475337287    6.43896877117745
C        19.68381213105765    7.66450050415569    6.58512807379174
H        18.82174959701661    8.16168634355097    6.16348951811397
C        21.80858218649536    6.40016699729083    7.69038074385110
C        15.69204205519227    8.40312462077290    6.88728018708241
H        15.41641140356661    7.68300511844029    6.12818888678419
C        22.07982934722199    3.40658822202601    5.92991109743965
C        16.93564123273718    8.82496110779343    8.75136164970050
H        17.63065754542214    8.44935916215537    9.49151580167954
C        20.95806976635192    7.99426823901361    6.15003693896834
H        21.08445684463532    8.74407697402490    5.38596430532593
C        22.04934668008449    7.33343276409656    6.68344697198449
H        23.05522358172928    7.52904462203452    6.34456228808248
C        14.36641420790860    3.09906425716796    7.00058804008030
H        14.23258754757517    2.21934490166090    6.39151031512667
C        22.85437584880801    5.66668372358765    8.30154673903615
N        23.67817822425540    5.04210003201503    8.79281291201852
C        13.56591454318951    4.74065617117071    8.52460686991537
N        22.94531562285063    3.62020994824451    5.21069422504834
C        16.91752504704061   11.00768207797563    9.84200978132164
C        12.54101305117177    5.31949800822131    9.31218551745082
N        17.28368779714891   11.71727397254778   10.66284203032362
C        15.16734330675168    9.68752127747072    6.87399507508664
H        14.46686487535269    9.98069301552640    6.10836466082037
C        20.06847576645090    2.34926694676006    8.84234663474564
H        20.13614840135915    1.79631802000587    9.76517792837519
N        17.35406552763598    5.89560997553235    5.84134747884404
N        11.70570867724969    5.79084882986507    9.93737441171929

