59
CSD_code = UDABUZ | q = -1 | S = 0 | Stoichiometry = C24H16AuBr4N2O8S4(1-) | MND = 2
Au        7.56161109705780    0.00000050768972    8.61807392489369
Br        5.67269877828566    5.91305775094046   13.54577433222064
Br        1.69509330264777   -1.99858097041962    3.65562715648949
S         6.23214294221121   -0.11737126682005   11.46916762755347
S         7.70260990261382   -1.32657594669488    5.76627215311523
N         7.56160591956060   -0.00000121796012   10.57142231024018
N         7.56161491312538    0.00000200189233    6.66446560817120
O         5.11923401284146   -0.44353576799391   10.62032878746678
O         6.46084451877386   -0.99034038413119   12.59135021002060
O         8.04189638062303   -2.43532379487353    6.61543621783384
O         8.57622617412566   -1.08278769453025    4.64769706213557
C         6.00323838686805    1.54796066523334   12.07238546558637
C         5.92776549138663    1.79984423197123   13.42752805888939
H         5.97154092351258    0.96718795265321   14.11029707370638
C         5.82595379220526    3.10539647600930   13.87561702850022
H         5.77502275951259    3.33004434837176   14.93064685814235
C         5.80521924504996    4.12537960437776   12.94024586159026
C         5.87736306616423    3.88273607737815   11.57953869055999
H         5.86326530734998    4.69892404142367   10.87280496667546
C         5.97825505457675    2.57181484414470   11.14470481581492
H         6.05067542890983    2.33561989119933   10.09421591312588
C         6.04418969579934   -1.58254179793202    5.15466241872553
C         5.80314168680786   -1.68029536547410    3.79895427467212
H         6.63994036951311   -1.63430714940981    3.12141673604781
C         4.50251247206461   -1.80812718538387    3.34321069354748
H         4.28628149176111   -1.87752456370932    2.28746626105465
C         3.47623090091022   -1.83113451343723    4.27161277759236
C         3.70801342165473   -1.73640845667141    5.63286750135399
H         2.88701761053554   -1.75255433631648    6.33393302837155
C         5.01415597434015   -1.61045428656061    6.07540117987807
H         5.24181723949612   -1.51977224094363    7.12635366820697
Br        9.45047263988498   -5.91306894276358   13.54578007760648
S         8.89105915748088    0.11736605256698   11.46918248868354
O        10.00397799630992    0.44353206465405   10.62035737920020
O         8.66234528895308    0.99033208825530   12.59136497454394
C         9.11995454787480   -1.54796777269428   12.07239849985309
C         9.19541569836752   -1.79985437151452   13.42754109283483
H         9.15163943673757   -0.96719936585767   14.11031142765796
C         9.29722457361846   -3.10540763419570   13.87562788673218
H         9.34814856401929   -3.33005766210874   14.93065751967598
C         9.31797119667999   -4.12538852100822   12.94025424341078
C         9.24583338220025   -3.88274220132636   11.57954743334952
H         9.25993425788971   -4.69892877198118   10.87281221710701
C         9.14494259917244   -2.57182012731375   11.14471595238071
H         9.07253339276661   -2.33562254541539   10.09422677958907
Br       13.42810306534426    1.99859353322161    3.65557759698037
S         7.42060606122988    1.32658037104220    5.76627499062401
O         7.08132604826124    2.43532651434316    6.61544387203266
O         6.54697892311834    1.08279177873379    4.64770851735860
C         9.07901974890937    1.58254969128940    5.15464925404323
C         9.32005632735052    1.68030060867952    3.79893892757825
H         8.48325223334764    1.63430909495965    3.12140830900733
C        10.62068168927908    1.80813302462550    3.34318440427032
H        10.83690394984910    1.87752815886993    2.28743803991617
C        11.64697093072270    1.83114311996389    4.27157792055496
C        11.41519975332061    1.73642036625737    5.63283485839074
H        12.23620145412590    1.75256915362131    6.33389342895917
C        10.10906098043230    1.61046573284594    6.07537947422365
H         9.88140784246708    1.51978510822683    7.12633377124934

