52
CSD_code = UDAKAM | q = 0 | S = 0 | Stoichiometry = C26H22AuPS2 | MND = 2
Au        4.26072835954197    7.43600679072089   16.76916009637304
P         6.10526864865260    7.29813405807543   15.46059197863932
S         4.02074917357678    5.28201003123540   18.75014899076114
S         2.31401893773232    7.58333674512052   18.12024235466792
C         6.35570110616941    5.65355245872336   14.74608793367053
C         6.15738441396972    4.57394182368662   15.60524211835877
H         5.86516235213081    4.75480899597776   16.63180009617293
C         6.32323240081512    3.28480256861094   15.13673166973078
H         6.16979595136518    2.44881268807341   15.80230397017533
C         6.67429319392684    3.06902612317671   13.81276796134858
H         6.79895489803538    2.06119264356101   13.44555464923970
C         6.85834824321623    4.14216026541066   12.95603705087673
H         7.12555787807472    3.97063595183936   11.92348132024305
C         6.69920234226902    5.43761099428278   13.41619026687207
H         6.83870344632134    6.27620436974481   12.74762319979698
C         7.65265617309190    7.64604802277896   16.33740358908544
C         8.76644929661769    6.81578437424841   16.29359328141262
H         8.74351754360829    5.90878675020337   15.70556823823624
C         9.90054299886495    7.15762158900988   17.00963823193916
H        10.76716185122972    6.51386833755913   16.97740458438064
C         9.92644472416356    8.31736760410224   17.76626104601694
H        10.81392944365784    8.57657062707700   18.32395695164368
C         8.81320124292192    9.14283269866841   17.81607313051025
H         8.83156138955443   10.04273979873066   18.41255632546575
C         7.67601242105822    8.80618869307185   17.10846682937197
H         6.79290726044134    9.43241007249279   17.14604823141201
C         6.15529149364024    8.42726331679174   14.04379831115799
C         7.34354938834976    8.94666015500345   13.53925022955920
H         8.28545282561809    8.68745755219431   14.00334053527990
C         7.30900713684294    9.79440358495274   12.44704099039551
H         8.22991709086919   10.19926849854949   12.05390319627680
C         6.09880071186816   10.12480298697898   11.85776704591150
H         6.07902322255377   10.78798249383988   11.00595942830870
C         4.91431208187562    9.61069188563678   12.36133096440620
H         3.97170899790348    9.87228271204700   11.90419357240276
C         4.94053292783065    8.76648800859945   13.45561759581947
H         4.02400880556107    8.36515261851482   13.87027351377217
C         2.65392837152026    6.18182234626305   19.03061479750376
C         1.65371043369400    5.77672573605133   20.01707153600783
C         0.31621869431525    5.78833579852928   19.61822925833102
H         0.07724779589859    6.11426700423255   18.61656436227375
C        -0.68585030598640    5.37665254797925   20.47212816825906
H        -1.71329242039870    5.38290666212770   20.14024554152207
C        -0.36330798331099    4.96319094142112   21.75329787796657
H        -1.13821925333759    4.64144565574444   22.43375982925772
C         0.95695495452051    4.97430658831888   22.16476134944589
H         1.20313179350884    4.66722027683448   23.17175715369035
C         1.98361701840361    5.37130894468387   21.31829369332890
C         3.39090911006939    5.38132615535490   21.82758824517813
H         3.92611288626869    4.50422517453829   21.46486828080909
H         3.40156612147367    5.36789505104630   22.91533519125148
H         3.92918240945788    6.26046222759616   21.47837523546929

