31
CSD_code = UDALIX | q = -1 | S = 0 | Stoichiometry = C4H12AuN2O8S4(1-) | MND = 2
Au        7.09195961673661   10.59613482275202   14.52995737427590
S         4.54462799867513   11.65331462111656   13.51295341294976
S         4.31856544799020    9.30412545398111   14.82791396666969
S         9.80218519102441   11.86617611420693   13.85117846058126
S         9.31103811047415    9.32278478785678   13.08176951815783
N         5.11799952690790   10.71052520495388   14.69581128974844
N         9.04248991765145   10.47162861117005   14.18880724184414
O         5.51082483754785   12.69143555993665   13.23472983440365
O         4.11261382895192   10.89990934311383   12.36334535939621
O         4.70330826048904    8.66236255060118   16.05675046007802
O         2.90147541401867    9.56723749738587   14.70654562533942
O         9.73685739977459   12.72336248757839   15.00475819077969
O        11.14385182913560   11.56260287194232   13.40413749477881
O         8.34166362773983    8.26642737123370   13.26298947421034
O         9.39398189183657    9.85035051429880   11.74371786133527
C         3.09860870171701   12.45766778510661   14.24336866215873
H         3.45388199077403   13.03950943376014   15.08236074453320
H         2.44005042302852   11.65773531437028   14.55603909695010
H         2.64339771153343   13.08492018223239   13.48760701121642
C         4.82177831619688    8.24504357943364   13.45566455864453
H         4.28515345641485    7.31002914340416   13.56166922680146
H         5.89451883299485    8.09596902512166   13.50965067822136
H         4.53648055895744    8.76605976756007   12.55090933593613
C         8.92029243333063   12.67069976011624   12.49757609326383
H         9.43791464099362   13.59891785481607   12.28811989320213
H         7.89625313994885   12.84786970397549   12.80721080766457
H         8.97051375048292   11.99016173316809   11.65744944928020
C        10.92694522734460    8.64235921903353   13.52637661814057
H        11.18664667524243    7.88479594611039   12.79808351988559
H        10.82954266079906    8.22419478316514   14.51839228861383
H        11.61577858137394    9.47688895654557   13.50535645097635

