59
CSD_code = UDASEA | q = -1 | S = 0 | Stoichiometry = C24H16AuBr4N2O8S4(1-) | MND = 2
Au        4.64139586680072    6.43294758006495    5.25411356671105
Br        1.78869279222576    0.99983158719454    9.63657429276888
Br        4.61939238199203   12.50519558614926   11.33039334469209
Br        8.92457746867400    2.01385663203735   -0.68633485798754
Br       -1.85432187755158    7.02183989463534    1.58950491226788
S         2.75016111796990    6.98533457846381    7.55543138375446
S         5.28364935310239    6.87649001534092    8.34339661508101
S         4.33150435528347    4.25053884837754    3.17111533131775
S         4.52850027157791    6.65676662250846    2.10024008798791
N         4.29161460810510    7.06603894317842    7.08504438765610
N         4.83817002379838    5.76334950007588    3.41159639688083
O         1.91140885836379    7.24082621032620    6.41233874126915
O         2.55864971207705    7.85565472968792    8.68872924823998
O         6.63783294278981    6.76724442301814    7.88052914673292
O         4.81389565176362    5.83475718675087    9.22010771899292
O         4.38069652137385    3.53461434402945    4.41974685022638
O         3.06976878452962    4.21483436921362    2.47888097637925
O         5.06443041608136    7.97636589777136    2.28009562790509
O         4.99542645634022    5.93044494644654    0.94467623151523
C         2.44735437623400    5.30734978090753    8.09724905212499
C         1.96271488289108    5.10739297002587    9.37642269902331
H         1.77351573398723    5.97026290670870    9.99420848404866
C         1.75839146409565    3.82137582476037    9.84243147334422
H         1.39092403158149    3.64279425795256   10.84206473639605
C         2.05031144598251    2.76096328414565    9.00138607203289
C         2.52224957100926    2.94927553750278    7.71571274914188
H         2.74908935349937    2.11224556353182    7.07307411989491
C         2.71822330906416    4.24299704167315    7.25922081062519
H         3.10228212404668    4.40413329576158    6.26283074014597
C         5.13135625557374    8.43547983868713    9.20621517054383
C         4.83911944402923    8.46129280162700   10.55498224653157
H         4.71873078985821    7.52483106512611   11.07486671891907
C         4.68552439844527    9.67718247807857   11.19834866531560
H         4.44771678168911    9.72463237717791   12.25063506393545
C         4.83145720171336   10.83838405334065   10.46001290076653
C         5.12984947865215   10.82266262235215    9.10842619649705
H         5.23378240438845   11.74722906692344    8.56028614892895
C         5.28233805333959    9.59932408090743    8.47860938283547
H         5.50260168025455    9.52911197102963    7.42568236889217
C         5.58819103508658    3.56851796878202    2.10170340752694
C         5.24269192880244    2.93027924473936    0.92761595425659
H         4.19832847521069    2.83246538597710    0.67981400649171
C         6.23780334526232    2.45936964293454    0.08865533751495
H         5.99537384299356    1.96612923338263   -0.84086330851242
C         7.55808061105452    2.64713771034618    0.45848308704999
C         7.91352092819281    3.27939554731133    1.63754308682099
H         8.95367593240080    3.41353162544514    1.89520734246298
C         6.90808279743947    3.74463422325905    2.46744433249904
H         7.12819922283454    4.25809337915985    3.38962897508355
C         2.74743938675774    6.79830690360968    1.97305875231528
C         2.14667175034261    6.47218927111689    0.77155907974245
H         2.77223051502551    6.14622741764135   -0.04357654236848
C         0.77065836024969    6.54179918832464    0.64788981466112
H         0.28078827087031    6.28339380008753   -0.27935577084044
C         0.02833177314189    6.93856555352516    1.74717346701182
C         0.61829288543506    7.27626277847357    2.95089347784022
H         0.02853970539149    7.57503500907609    3.80401446692098
C         1.99819187681720    7.21115599192370    3.05764163674653
H         2.47132887118396    7.45715741132288    3.99642359447554

