137
CSD_code = UDEDUE | q = 0 | S = 0 | Stoichiometry = C60H64CrN8P4 | MND = 6
Cr        6.81798671520574   10.45915779018365    0.50393663119520
N         2.95384248455184   10.51391070156524    1.47969263130516
N         5.58579501198810    9.18181830194143    3.47561126985301
N         7.75158445038876    9.62368600022926   -0.72750225012091
N         8.36729801411167    9.09100830836792   -1.51846490789188
P         5.47524488544199   11.46412005618041    2.04764194235774
P         5.10087854361050    8.98553317327543    0.77905845335351
C         5.20467755524847   13.75031687113523    3.78822593909580
H         4.79404592217621   13.11290827456332    4.55903315487941
C         5.31779823247134   15.11159926677053    4.01652636235768
H         5.00821847334965   15.52278663769088    4.96740089298113
C         5.82323239512757   15.94864876931463    3.03453693292683
H         5.91204970652093   17.00855814849565    3.22352387497137
C         6.19983747720661   15.42533900909722    1.80808558126277
H         6.58087052875446   16.07214403873466    1.03091054088992
C         6.08862198935629   14.06586084158518    1.58100185242288
H         6.36846053458280   13.64238931289221    0.62224605337856
C         5.61333935070860   13.21386988572803    2.57221213359301
C         3.71037169171740   11.74056238806749    1.48914746732041
H         3.25379975226888   12.42871960798112    2.21504168032072
H         3.73187981808923   12.24586528733113    0.50471248889996
C         1.51442602701964   10.75380662376072    1.40769364651960
H         1.23079116563088   11.20241171536272    0.44070297937180
H         1.25836330173812   11.46467075676163    2.20108689562756
C        -0.03189802600301    8.92517948915691    0.62411378361368
H        -0.12398809199858    9.43930330836331   -0.32234155610756
C        -0.69917547042765    7.72964570415844    0.82646086813144
H        -1.31133844056541    7.31609532383845    0.03849774236477
C        -0.57746831412940    7.06407652490489    2.03369453947335
H        -1.09523271811557    6.12943572460899    2.19184954028888
C         0.20877006295632    7.60204870635082    3.03876619436431
H         0.30694949814181    7.09033521525196    3.98439962209326
C         0.87103409874998    8.79891771813088    2.83723887078195
H         1.48125904621854    9.21661018461539    3.62564138418272
C         0.75805003208849    9.47209361533748    1.62639982837487
C         3.39328394427969    9.62610980622673    0.43110432865419
H         3.40682495440824   10.10874397736705   -0.56615852396940
H         2.71725586419784    8.76177744147593    0.39063834275281
C         5.34047993801015    7.46195139011863   -1.48770122989818
H         5.86803449669226    8.34126675725674   -1.83702995473259
C         5.16518391931914    6.37009741426047   -2.31846890813605
H         5.55663953666554    6.38985285012032   -3.32480225528816
C         4.49104796657620    5.25256563851701   -1.85510909308904
H         4.35733644146593    4.39440249882252   -2.49768234629244
C         3.97976098179445    5.23819388293981   -0.56729815866778
H         3.44130128577293    4.37149717625847   -0.20989452192441
C         4.14878781393300    6.33009800318103    0.26479444594205
H         3.72680183419336    6.31217201993270    1.26012142004388
C         4.84665570401392    7.44612253598306   -0.18703611440158
C         4.83207688576576    8.39689177624455    2.51628996725114
H         3.74766266902476    8.40476638495072    2.72781718228363
H         5.20814661504099    7.36913616294301    2.56330048779459
C         5.61859435772863    8.50871544408746    4.77951004690474
H         6.17941321256918    9.14653142587805    5.47071151643407
H         6.17275566330323    7.57431328261378    4.65149979225943
C         3.68272221113737    6.95640853262441    5.18032709130000
H         4.22104285433152    6.19820442511811    4.62833047523163
C         2.43602915355706    6.66932674342154    5.70593111855988
H         2.00638722053621    5.68846705172153    5.56136074728872
C         1.74451591014331    7.63355965137667    6.42004431863988
H         0.76982419429636    7.41318928877677    6.83012250828368
C         2.31275961428386    8.88039963950465    6.61479661400949
H         1.78150436381759    9.63479394751472    7.17690698767632
C         3.56652052183877    9.16077156321669    6.09960209669001
H         4.01220440367850   10.12906533287366    6.28091209956982
C         4.26389377810378    8.20475921764016    5.37040269883096
C         5.08107880598199   10.53649582547290    3.59286426161700
H         5.60979707367757   11.02929347024271    4.41279485910235
H         3.99169588544069   10.56440854742091    3.77285219389950
N        10.68097214140758   10.40509876679851    1.47966314874176
N         8.04902686086341   11.73733990487363    3.47577158668703
N         5.88461786973809   11.29455923076058   -0.72750478707552
N         5.26804627777635   11.82779866820607   -1.51732559063814
P         8.15977716360574    9.45487088827372    2.04793132276790
P         8.53396408509866   11.93378623730548    0.77923103922991
C         8.43033414845110    7.16875465627728    3.78837746822770
H         8.84095397400384    7.80620711360456    4.55915544166779
C         8.31719005696956    5.80748928580088    4.01673589659060
H         8.62676010028597    5.39636012540079    4.96763375935965
C         7.81172500101836    4.97041187142415    3.03479252494189
H         7.72290770651463    3.91051108000653    3.22382377233615
C         7.43509384138069    5.49366790766708    1.80832481604996
H         7.05407285450829    4.84682810669155    1.03116963532984
C         7.54631513952565    6.85313779386080    1.58118828697630
H         7.26654930107728    7.27655135576058    0.62238612388112
C         8.02163310394964    7.70515294143612    2.57236765042145
C         9.92448366199847    9.17844084815882    1.48907068991711
H        10.38103757400167    8.49031484999211    2.21493966703062
H         9.90303358390174    8.67314798815269    0.50458846628330
C        12.12044771030249   10.16525704125691    1.40778388653439
H        12.40415679178128    9.71649998245580    0.44089095336681
H        12.37652088460977    9.45451394465075    2.20129744015436
C        13.66679296279744   11.99374485283856    0.62395038988438
H        13.75883794760897   11.47949614086436   -0.32244247560296
C        14.33407582211367   13.18930827609179    0.82610312626412
H        14.94619507497172   13.60275718532608    0.03805078353487
C        14.21243361950039   13.85503066860133    2.03325917690808
H        14.73020546435765   14.78969547638333    2.19126030719409
C        13.42626352159489   13.31717884107385    3.03844840688452
H        13.32813816563300   13.82901241231183    3.98402494215073
C        12.76398863240911   12.12028150573897    2.83711348665448
H        12.15380883027993   11.70269034426870    3.62560820737753
C        12.87688406067077   11.44696290431861    1.62634451542302
C        10.24139173828196   11.29286784148265    0.43110936850969
H        10.22800749900714   10.81021283320062   -0.56617927526133
H        10.91737219536584   12.15716243093774    0.39066308535878
C         8.29449244188301   13.45732773206673   -1.48767400073250
H         7.76682334741594   12.57805396902299   -1.83695814282315
C         8.46999997686272   14.54911328651731   -2.31847377371675
H         8.07843632947496   14.52944831419167   -3.32478323599709
C         9.14431779485600   15.66654139695041   -1.85513534312636
H         9.27797601567760   16.52476877778877   -2.49765041990454
C         9.65558148042945   15.68087830561980   -0.56732502361458
H        10.19407729788085   16.54753793180710   -0.20986302365956
C         9.48640171362817   14.58902936357263    0.26478652235921
H         9.90846747151419   14.60682882716887    1.26008247847283
C         8.78833149441017   13.47311108422246   -0.18700618623079
C         8.80279015601230   12.52228343047673    2.51650408377542
H         9.88721503243579   12.51432223220294    2.72797532327457
H         8.42674414084734   13.55004215025980    2.56349866030804
C         8.01627266607499   12.41044739952648    4.77966043014355
H         7.45534336129306   11.77268218353745    5.47081126060600
H         7.46225833842762   13.34493163566506    4.65159775089097
C         9.95248098039010   13.96235885809144    5.18035580898720
H         9.41432291781275   14.72064695103198    4.62831733662611
C        11.19922014379851   14.24920939471531    5.70597630106025
H        11.62905086430417   15.22998320423457    5.56138796881077
C        11.89052416320846   13.28486762914676    6.42014373324662
H        12.86525765773892   13.50505353593650    6.83021905460483
C        11.32201848104657   12.03815564287309    6.61495634581205
H        11.85310060731920   11.28368398101566    7.17712581988194
C        10.06821274020608   11.75801673925876    6.09974652955729
H         9.62232096813268   10.78982842211861    6.28110492465254
C         9.37104604856111   12.71414412873575    5.37050379548061
C         8.55378927977390   10.38267479641394    3.59306336579471
H         8.02504738194039    9.88986713006489    4.41296846824766
H         9.64316755950071   10.35477687566061    3.77303838410731

