137
CSD_code = UDEFEQ | q = 0 | S = 0 | Stoichiometry = C62H64CrN4O2P4 | MND = 6
Cr      -20.53919178325205   10.46858244965005    9.34391377774215
N       -16.67940729149410   10.51843983331951    8.36779386508621
N       -19.31780684114142    9.19804000856853    6.36258154951116
O       -22.05515246610771    9.27463532094686   11.62829402960086
P       -19.20738973412110   11.46328501746669    7.81422781870308
P       -18.84252339169953    8.99995151135030    9.05345086417032
C       -18.94496741815688   13.76021311511367    6.08120019331560
H       -18.54340024849410   13.12868269528229    5.30080263303197
C       -19.05660618939309   15.12380202682817    5.86494192522626
H       -18.75655240789943   15.54135816816705    4.91368582125705
C       -19.54797451256774   15.95494366941231    6.85882917170805
H       -19.63520538519273   17.01663762216038    6.67906010692582
C       -19.91187399212776   15.42326553443337    8.08570342438846
H       -20.28112753530541   16.06573126718106    8.87225711544567
C       -19.80296753838716   14.06167202202584    8.30025396411283
H       -20.07394930927299   13.62523600899924    9.25631804386130
C       -19.34325070807632   13.21557130700456    7.29694722259349
C       -17.44374478957088   11.73833886014292    8.37480934079963
H       -16.98624500736112   12.44174702904950    7.66378009683952
H       -17.47589219088034   12.22631516022604    9.36866008511516
C       -15.24171190444972   10.76296490977361    8.45006181739072
H       -14.96369466736207   11.19633714300968    9.42589149627316
H       -14.98485061190254   11.48843990078523    7.67012291997927
C       -14.58941947277386    8.83131412809598    6.99368172753783
H       -15.20545020350011    9.25513279920421    6.21318113587027
C       -13.91858249898664    7.64251193162785    6.77399695672577
H       -14.01508850633417    7.14319385013000    5.82162743821768
C       -13.12566657570273    7.09672916462568    7.76962624867278
H       -12.60079340952959    6.16858767517531    7.59717383885028
C       -13.00667531539126    7.74601868183695    8.98590729564915
H       -12.38972852416168    7.32609780408692    9.76674882498647
C       -13.68253738837580    8.93351145440852    9.20638548636321
H       -13.59224825785025    9.43481158583576   10.15987909916577
C       -14.47834749390582    9.48859109072078    8.21339620887468
C       -17.12111642852290    9.61018433734616    9.39586089226606
H       -17.12271325347658   10.06831898622286   10.40534490427318
H       -16.45162738374223    8.73952079679385    9.41096111763168
C       -19.09945162078223    7.45222199550672   11.30681598916899
H       -19.64145690560878    8.32523273863439   11.64942022068862
C       -18.92287108545966    6.35612896045727   12.13151863440280
H       -19.32594386964851    6.36351923979708   13.13356747688671
C       -18.23116599379302    5.24943251917110   11.66767234032749
H       -18.09672841161239    4.38721167134902   12.30463447134856
C       -17.70258422520527    5.25247879477750   10.38702111038343
H       -17.15130790570441    4.39430118201042   10.02879117691267
C       -17.87037456054889    6.35099736207555    9.56305391880581
H       -17.43351021147005    6.34605305108483    8.57397790910003
C       -18.58831038819162    7.45465527489461   10.01378981925293
C       -18.56761616122357    8.40591661323922    7.31769973424793
H       -17.48289362382328    8.41150431017395    7.10534657773556
H       -18.94715784612136    7.37909725481580    7.26800049239624
C       -19.34726065986674    8.53544694710650    5.05349433785352
H       -19.90973590064809    9.17635270023751    4.36630778868901
H       -19.89776540884367    7.59770545355889    5.17427493325066
C       -17.40142571271982    6.99654381809484    4.64514684387168
H       -17.93273291036519    6.23351494441068    5.19728681843368
C       -16.15479943336080    6.71873784477135    4.11436284821435
H       -15.71840995491110    5.74023676765909    4.25489667693561
C       -15.47217389031039    7.68890038207529    3.39974945329432
H       -14.49804583041739    7.47533568701266    2.98470664425179
C       -16.04866577998519    8.93282504301051    3.21080640354558
H       -15.52424762753379    9.69200729702078    2.64870282236399
C       -17.30206488379777    9.20404919922816    3.73163779735907
H       -17.75404555984457   10.17036932556188    3.55539004874701
C       -17.99128465444763    8.24156061588869    4.46007839253338
C       -18.80888977307078   10.55242138539295    6.25893720794042
H       -19.33316392834210   11.05332943248347    5.44094759392678
H       -17.71837484942727   10.57853083330287    6.08312592284677
C       -21.48569229034158    9.69487291129323   10.69868146682420
N       -24.39978249595178   10.41746146940707    8.36770065614036
N       -21.76142484002082   11.73782380098240    6.36275590519134
O       -19.02328093027198   11.66110822011924   11.62896092273884
P       -21.87142325234366    9.47263297921845    7.81471939233000
P       -22.23684281018321   11.93587130304102    9.05356072058038
C       -22.13418105025882    7.17582445373300    6.08131634641836
H       -22.53579983882991    7.80737321592910    5.30095663383730
C       -22.02258496481851    5.81223143380141    5.86499069040117
H       -22.32269731107649    5.39470088325931    4.91373814983350
C       -21.53119796937603    4.98104320287839    6.85882557876917
H       -21.44395731678276    3.91935396403343    6.67900911568031
C       -21.16722835589140    5.51267923137762    8.08569897942006
H       -20.79786902695268    4.87019529172743    8.87219091041017
C       -21.27608072393448    6.87426084033083    8.30030790923348
H       -21.00498389798552    7.31067527845103    9.25634683878358
C       -21.73581131898196    7.72041515145370    7.29707983125838
C       -23.63528540298510    9.19764123569679    8.37470020668483
H       -24.09278337189047    8.49412032851475    7.66376190971956
H       -23.60308272893743    8.70972970087821    9.36856296950541
C       -25.83743920507884   10.17282028559777    8.45011354308069
H       -26.11534968455062    9.73957041011595    9.42602768667139
H       -26.09428658891027    9.44721186357351    7.67029758788339
C       -26.48971632248129   12.10438212913949    6.99363458160857
H       -25.87345477272886   11.68065686649998    6.21326626519242
C       -27.16075399659317   13.29303573282815    6.77377449226196
H       -27.06415407251990   13.79234338262933    5.82140944689781
C       -27.95398462250819   13.83868707176161    7.76922546105809
H       -28.47901116996032   14.76671860272146    7.59663825007333
C       -28.07305111856594   13.18943666993721    8.98552007587990
H       -28.69021704800427   13.60927636219551    9.76623521963786
C       -27.39695520439771   12.00211294537652    9.20618960263677
H       -27.48732597048071   11.50083527858600   10.15968564367877
C       -26.60088184576001   11.44712999790842    8.21335356266671
C       -23.95829883974190   11.32581151186625    9.39578002997201
H       -23.95662618671531   10.86774382619645   10.40528414898526
H       -24.62783716884405   12.19644841404129    9.41081061434297
C       -21.97949205537360   13.48385874526033   11.30664304438511
H       -21.43770753065206   12.61076337367483   11.64936542215216
C       -22.15574565252171   14.58011005608522   12.13119084274917
H       -21.75292296406343   14.57261824315849   13.13337500518737
C       -22.84738229039846   15.68683417426611   11.66731452422547
H       -22.98184959159354   16.54906995592304   12.30430178872585
C       -23.37623817224333   15.68364950378816   10.38679232339130
H       -23.92740022014674   16.54188256455263   10.02852260776991
C       -23.20862432685257   14.58504162511840    9.56290273170995
H       -23.64550752712668   14.58999266058212    8.57382940267270
C       -22.49079731531281   13.48132790682993   10.01369773646340
C       -22.51158902961746   12.53002758176545    7.31781687405650
H       -23.59629608753085   12.52452489989882    7.10537799379627
H       -22.13197155138987   13.55682149281730    7.26805750072716
C       -21.73197178944855   12.40037868805493    5.05361560284386
H       -21.16964599600892   11.75940959959568    4.36636788378972
H       -21.18129714279741   13.33803587215876    5.17429205519420
C       -23.67749114453012   13.93972458134090    4.64530108997124
H       -23.14601342295837   14.70264389215922    5.19742830656628
C       -24.92409710103490   14.21778151674657    4.11459877015539
H       -25.36028517174934   15.19637124924975    4.25515336346672
C       -25.60695331368247   13.24775919365800    3.40001548843466
H       -26.58102520586461   13.46154683538096    2.98494797961942
C       -25.03073520332329   12.00370933882785    3.21106903149457
H       -25.55533702411527   11.24463739876054    2.64898862798988
C       -23.77736869621982   11.73222432742833    3.73184234466771
H       -23.32561443676158   10.76579930569467    3.55560111336104
C       -23.08790320993844   12.69457338146401    4.46023058004972
C       -22.27030314489076   10.38339783291299    6.25939619286092
H       -21.74612065243975    9.88246668003749    5.44135663222854
H       -23.36083659538338   10.35727664704728    6.08358800612124
C       -19.59380251474226   11.24217111691422   10.69948692296635

