94
CSD_code = UDEFOB | q = 0 | S = 0 | Stoichiometry = C35H53BrO2P2W | MND = 6
W        -2.85990182722935    6.82798335631662   17.18327961496323
C         2.54420924712778    7.12914833740953   16.83368461562452
H         3.16393124091711    8.00220484342822   16.68997296845876
C         1.17652951989197    7.26899581879898   16.89482404151074
H         0.71189796629038    8.24006308129079   16.80228406892484
C         2.33533687655358    4.75680763470554   17.14275521435247
H         2.79079546582738    3.78121854207430   17.23937228887468
C        -2.49512256135259    4.63382331800407   14.11865733739004
H        -3.13547465567642    4.27518248828316   13.30316667280044
C         3.13236479411051    5.87689139915931   16.95437287976081
H         4.20580250069330    5.77476357199868   16.90385450422714
C         0.34891712211240    6.14158556829274   17.08243782300907
C         0.96587109694286    4.88000048138359   17.20875859669214
H         0.34397795724596    4.00764769650124   17.35971664108397
C        -1.74347542596779    5.88691138013437   13.66351210642907
H        -1.12959586480486    6.24055629331008   14.49765948836558
H        -2.44738611743723    6.68176299744860   13.40658768445293
C        -0.56399366571276    3.25207146829230   13.28763564662558
H         0.15436370271152    2.47943996323990   13.56969921954570
H        -1.15782993381985    2.86693600903304   12.45457784186176
C         0.17041904358588    4.51141743580221   12.84399999107572
H         0.81486409421273    4.28676592992798   11.99202749246859
H         0.80179721654080    4.87088627357749   13.65983985395863
C        -1.48497154738914    3.54361219364898   14.47160619114332
H        -0.88295590412210    3.88141453978006   15.31854948035102
H        -1.99704908584346    2.61973769854015   14.74784042401364
C        -0.83765214021704    5.59239158855949   12.47279613028031
H        -1.43851616882326    5.25660220485195   11.62352140392513
H        -0.31820825698033    6.50483349559740   12.17606282559993
P        -3.59459114388157    5.11860712233495   15.55104426626805
P        -3.72259252910805    5.14406164147785   18.78222437888968
O        -1.51977798895185    8.77217038289169   19.22498471262068
O        -1.63587394355381    8.94800039265176   15.24477607168218
C        -4.60900192406782    6.66625850502725   20.94099077952857
H        -4.00086185827231    7.42321097441503   20.43249663117838
H        -3.98614892448501    6.18413186856629   21.69897613054583
C        -2.20088954717930    8.18100663506879   15.89333107070070
C        -5.92666762102943    4.55402495093669   20.63395574324381
H        -6.27407718407716    3.80041795432159   19.92482112117170
H        -5.34158938886131    4.05220665259519   21.40377771698298
C        -5.10257662459566    5.63093450382107   19.93045014953754
H        -5.78759560480744    6.15340134528586   19.24389217408536
C        -2.40113158108151    4.19334177843108   19.69542742460958
H        -1.89254763468900    3.64581339166927   18.88568928483682
C        -6.66436821063590    6.80895890451248   13.33768862652592
H        -7.25784613831769    7.11370495977324   14.20163088686601
H        -6.63687278894759    7.64612626076209   12.63807598047004
C        -5.28012292216037    5.29897448320019   14.77688677423710
H        -5.93586111849022    5.58672686743241   15.61184260085603
C        -2.15009276031180    8.09511264333206   18.53714483797181
C        -5.24924504761556    6.47474176258157   13.79738289675103
H        -4.64242926218326    6.21610007423412   12.92562875580198
H        -4.80341767344384    7.35067922843598   14.27874421741296
C        -5.88640815800016    4.07166126036909   14.10007604342386
H        -5.93715804708871    3.22640164545063   14.78942519511700
H        -5.28293797321386    3.77184424281559   13.24006112477366
C        -1.37679409564029    5.14672366353870   20.31243018286410
H        -1.05423813315310    5.87572567549485   19.56327597978084
H        -1.82932955571669    5.69314698365693   21.14196732182958
C        -0.16892631479983    4.36563025437968   20.82381220628720
H         0.33041081945444    3.87974775163197   19.98260830753250
H         0.54610111723958    5.05333353389028   21.27848164591216
C        -5.80476748198312    7.33012116088329   21.61749466497439
H        -5.45851763690388    8.06087962828217   22.35090097641939
H        -6.39036926297586    7.86089391295564   20.86435168914583
C        -2.85134138527433    3.18499768422119   20.74869604967257
H        -3.60962344929567    2.50709796232199   20.35061964469265
H        -3.27687640281438    3.71466343721861   21.60195024021940
C        -7.30273065636588    4.40340961644389   13.62812201642718
H        -7.73755451040679    3.52979105524730   13.13693479866792
H        -7.92191841638935    4.64317103355139   14.49561737466413
C        -7.13223148063457    5.22300611992845   21.29594070465372
H        -7.75090441111463    5.69543075917609   20.53008378539992
H        -7.73900628242640    4.46776898210015   21.80058570790141
C        -7.29977202032806    5.59223726147543   12.67239404384742
H        -6.73530931285420    5.33348763661254   11.77269227688418
H        -8.32235160528990    5.82351230651105   12.36898684151606
C        -1.64616061148868    2.38116427206106   21.23557074576428
H        -1.96910571720476    1.64986680551747   21.97972841438922
H        -1.20816496856732    1.83348488053814   20.39753772676209
C        -6.67746021659320    6.27968082938755   22.29905903752592
H        -6.10881372038695    5.79814872860359   23.09915077330535
H        -7.54796720770164    6.75798750984643   22.75139650868616
C        -0.59831014745265    3.31121853165718   21.84009042543986
H         0.26819499066328    2.73328565024996   22.16687465826084
H        -1.01928203886032    3.80567154068798   22.71861287719559
Br       -5.22133149014728    7.85753755189554   17.21188615841632
C        -1.03171947790415    6.28882007213641   17.13519923067667
C        -3.75936425983844    3.54112309971425   16.52221605800183
H        -4.21072565688202    2.74335762322268   15.92555039145936
H        -2.74265235201844    3.23695695950318   16.78908954906712
C        -4.54976423656071    3.79853726656188   17.80068929466676
H        -4.63372142710193    2.88078130744057   18.39092250093072
H        -5.56056207461950    4.14752490963439   17.56090054628280

