50
CSD_code = UDEJUI | q = 0 | S = 0 | Stoichiometry = C24H22N2NiO | MND = 4
Ni        0.26794658068222    2.66086923776571    5.78327248807792
N        -0.11282771166104    0.73602820560504    5.26990441871789
N         1.54877556914549    1.82873889842258    6.95051684238467
C        -1.01016527499640    0.28742945416034    4.40602036787517
C        -1.09016620472480   -1.04361080511261    4.03339764977791
C        -0.18850144030336   -1.94113165880225    4.59071068649030
C         0.74593029410257   -1.47814869109254    5.49678288241113
C         0.76232285398647   -0.12086419882456    5.82540215404650
C         1.67521427993143    0.48881480429848    6.79279503601637
C         2.59236978531830   -0.24921596125190    7.54077061268793
C         3.38261990970768    0.38343043804743    8.47839023835390
C         3.21989235246119    1.75158882045491    8.66001401848143
C         2.29911086019394    2.42254664596372    7.88070047819055
O        -1.16427248559680    3.27567560082702    4.83821356934273
C        -1.80228755452663    4.39681586671219    4.66159747365622
C        -1.86149558233978    5.45252634344429    5.49153308946243
C        -1.05509759922913    5.51099354038662    6.75477310719550
C        -1.21462620557027    6.84444724033127    7.48080230068989
C        -0.27195953738223    7.76749947099792    6.70989545015981
C         0.95733214497110    6.89415552143160    6.45518714380268
C         0.41173186771287    5.48888667222925    6.34426678017223
C         1.01908065183425    4.39671594855298    5.89237074299726
C         2.38242036154725    4.33050419705047    5.34537264646648
C         3.48596629513193    4.92447639055315    5.96187129335773
C         4.74877874781686    4.80797441970797    5.41143006867943
C         4.94196403826114    4.09839529017546    4.23818215097196
C         3.85815202312300    3.49835386479346    3.61533510722745
C         2.59655889548608    3.60915730427615    4.16329928020358
H        -1.68524522069225    1.03292871385831    4.00545035063086
H        -1.83523410211985   -1.36975400255470    3.32555041990592
H        -0.21547634406064   -2.98700216908019    4.32257200982891
H         1.45293736407499   -2.16267950622676    5.93679910797887
H         2.68275402764294   -1.31303198033303    7.39222087363441
H         4.09970495009556   -0.17399942705064    9.06139417204264
H         3.80002856696198    2.28848223216876    9.39303178959573
H         2.15481362679411    3.48655219872955    8.00508797608007
H        -2.37851769316033    4.43267109288605    3.72803681412571
H        -2.44841546869471    6.31370803330536    5.21612288492198
H        -1.28552888080231    4.63745583008031    7.38243854564313
H        -2.24498716287192    7.19849537040211    7.47810367084515
H        -0.88263677686219    6.75109997601915    8.51710600497790
H        -0.72889385527034    8.04799881620851    5.76035659755725
H        -0.02951051587251    8.67792545110496    7.25859881822651
H         1.62917956624768    6.95140105616737    7.31600699105511
H         1.51966150849419    7.18716357482383    5.56839326359744
H         3.35579998022963    5.47273569794624    6.88260763694861
H         5.59164512812818    5.27430227748426    5.90251821457315
H         5.93102428608925    4.01084811130139    3.81242680738028
H         4.00324431681757    2.94160047932552    2.70001246641107
H         1.73938478372711    3.14634531230847    3.67785650613550

