56
CSD_code = UDEKUM | q = 0 | S = 0 | Stoichiometry = C20H23N4O7PW | MND = 6
W         5.27075403179246    5.07195893489039    3.06192565789010
P         3.88071252051967    5.86257588231817    4.89371107783281
N         2.76080217861370    5.25943855064127    7.36032541577966
N         1.25807073894424    5.08576377391953    5.45151843853981
C         4.00162128694677    5.16222299935821    6.61668790059273
H         4.29494059758967    4.10685759592399    6.54595406590620
H         4.79004818677239    5.69628997096579    7.16165818974700
C         2.27629619136321    4.99734669255398    4.42041458112067
H         1.90599574249331    5.54838316870804    3.53698833665742
C         1.69617126988199    4.51133502195081    6.71733368662521
H         2.02907293389513    3.48435180347637    6.54812999791878
H         0.83383132434816    4.49684958307889    7.39187813333420
C         2.34460882178641    6.64194406011034    7.52593535246988
H         1.49072768715148    6.66058247133295    8.21069919135142
H         3.16668947298228    7.21339555433935    7.96434265813846
C         0.88288290808402    6.47534449364340    5.67809176148129
H         0.58962825267913    6.92955373060963    4.72699746173458
H         0.02361744730262    6.48443931144455    6.35681474963468
N         1.93702391200103    7.27076682030174    6.27976489536644
N         3.75388798241586    3.49843913941071    3.33450200124441
H         3.93952033318215    2.55755489528708    2.98599438760917
C         2.63296092249791    3.61064957416398    3.95275735925020
C         1.73559318401228    2.48232036672246    4.18726380866566
C         3.05893240386259    7.46639221174429    5.38186714579630
H         3.79902152429478    8.11089806513696    5.87133895544823
H         2.71184430036262    7.97637418639120    4.47469936249501
O         1.95442808725267   -1.15524159434197    4.79704019315820
O        -1.83174251660218    1.62648074022572    4.45197397187943
C         0.35177200837715    2.65396793134735    4.21422696200483
H        -0.05545462470605    3.63735447571799    4.06409796096225
C         2.26792485583895    1.20650732348932    4.36928922173241
H         3.33965443831261    1.08503160456356    4.38583745993387
C         0.05837744153745    0.26892200178133    4.60322608198054
C        -0.47511196143492    1.56590388655108    4.41508887043280
C         1.45362649412329    0.10356533310183    4.58665017434204
O        -0.88927696502890   -0.67876355519574    4.79559574698586
C         3.34645425069931   -1.35340770324003    4.74653142328837
H         3.49043482407654   -2.41891529937582    4.91876195663497
H         3.75870267851733   -1.08882836837518    3.76768577779205
H         3.86579224708607   -0.79092584401003    5.52889154100685
C        -2.44877749020262    2.88033859976480    4.29095171982664
H        -3.51738877186205    2.69166349433972    4.37866942706739
H        -2.13824482812084    3.58557444641923    5.06885939101218
H        -2.23765113157426    3.31038809908342    3.30647913738553
C        -0.56726626728031   -2.04748820150559    4.89845935447851
H        -1.52828096975505   -2.55381434541092    4.98673021390108
H        -0.04611537009420   -2.40905039427057    4.00970110055150
H         0.03778844401132   -2.25732698000870    5.78251966489033
O         7.15372384235364    3.53107083271324    5.03892984687143
C         6.61413268492225    6.51318446696037    2.91794134918214
C         4.09559777394803    6.08579290899204    1.81329380226931
C         6.45660880913075    4.08479802114542    4.31922514780973
O         6.68123032470128    3.62955307268375    0.68486091833337
C         6.15799317727296    4.16250540141007    1.55363311730352
O         7.38961878551163    7.35490212096955    2.83876385852435
O         3.45379357320773    6.71132866604396    1.10049003582591

