82
CSD_code = UDEPAV | q = 0 | S = 0 | Stoichiometry = C36H39Cl3N2PRe | MND = 6
Re        3.97055239064562    3.85612868960528    1.41304384554883
Cl        1.95300755612631    4.74678055063475    2.40235490275478
Cl        4.50545763361320    5.90749784024874    0.91770564051232
Cl        5.91038559164396    3.15200631575972    0.13998116018193
P         5.56659426753342    3.80508366004550    3.25102705222710
N         3.46514316062765    2.20583871440118    1.72873466921964
N         2.52288977347478    3.96760338073362   -0.52758869103114
C         3.08304137451143    0.96900102115328    2.03147952375040
C         2.42885711331755    0.72346138874428    3.27135661794735
C         2.04591831006699   -0.56208374927611    3.58458344421736
C         2.27225240796058   -1.62981747949408    2.71922114071174
C         2.92130118654453   -1.38251547454983    1.51799885013888
C         3.34146667688595   -0.11536910817653    1.15775928721862
C         2.18340278718213    1.85725703867258    4.20856469644440
C         1.81238063406172   -3.00650741402258    3.08200578002079
C         4.06411081223574    0.09438180078558   -0.13169295490327
C         2.17273279561043    2.83228222999007   -1.30618666429994
C         1.11566399569982    2.01354477213146   -0.89767305263325
C         0.80723534789268    0.89289008642154   -1.65276845257421
C         1.51555535121630    0.57062056060963   -2.80108210729320
C         2.55622762969092    1.40192265626701   -3.19082780898488
C         2.90127655834417    2.52813254430185   -2.46053091681656
C         0.32158235477987    2.34335014171053    0.32769009909215
C         1.15642383541830   -0.63670425731136   -3.61416249972955
C         4.04266136414040    3.39463721706514   -2.89757198698864
C         7.21425623617151    4.37846982745139    2.74168017334225
C         7.39787239978089    5.75164879559188    2.59397711059429
C         8.61260780552042    6.24630840593368    2.16015378036001
C         9.65138953727761    5.37528818160197    1.87362040857684
C         9.47362273050821    4.01060963305534    2.02783389516584
C         8.25908836036715    3.50733427889815    2.45838982205230
C         5.28021710536720    4.82488439529020    4.72908463288111
C         6.35702717566839    5.10424934651854    5.57080526067875
C         6.16604669926878    5.87114563921665    6.70378994293329
C         4.90567713302852    6.36541042246142    7.00574298264343
C         3.83520926091096    6.08421370256662    6.17508193552174
C         4.01745278641958    5.31324058637374    5.03876799422326
C         5.80325714948358    2.11729042604266    3.88885946996890
C         5.71198484945223    1.82151040307789    5.24431753311617
C         5.82374719989304    0.51053373928384    5.67325212522741
C         6.02126082916036   -0.50941084815182    4.75809635964377
C         6.11412681563958   -0.21791765465085    3.40686362214347
C         6.00208401739917    1.08830772840553    2.96946061640246
H         1.55311615198729   -0.74595314304973    4.52879835709803
H         3.11476237098016   -2.20193711492689    0.83993472577838
H         3.01726221401197    4.65789471475392   -1.09069117911973
H         1.69714993001033    4.39661614246138   -0.10472392084573
H        -0.00549568777179    0.25577891479025   -1.33419328447712
H         3.11725490067461    1.16445173784020   -4.08335319800124
H         1.84566103431768    1.49625092483342    5.17607291572875
H         1.43429725588019    2.53320111841486    3.79839242512108
H         3.09567842204760    2.44200314330420    4.33504802605138
H         2.00405148209856   -3.21235552016253    4.13291349984319
H         2.31102221032264   -3.75805318218130    2.47552856820254
H         0.73810486561229   -3.09377091772894    2.91757215557859
H         3.39359403450826   -0.08558391398160   -0.97039958948550
H         4.89524213796606   -0.60411066379571   -0.21280270904890
H         4.44518575412611    1.10829972099029   -0.20537043839709
H         0.97782747682357    2.55091504873857    1.17127470274045
H        -0.33147121764240    1.51604739002084    0.59142473562748
H        -0.29929204979901    3.22550222505080    0.16202315545473
H         0.46917653806774   -0.35831604049615   -4.41383681367241
H         0.66907504737933   -1.38827441007337   -2.99742418546271
H         2.04194043442347   -1.07317733446922   -4.07103305291120
H         3.71008057109937    4.41163072086454   -3.11699118441094
H         4.50157914901815    2.99258767770515   -3.79655081538483
H         4.80410928658468    3.43660987897025   -2.11835734661774
H         6.58320805156482    6.42841242153359    2.81732733851477
H         8.74729990866845    7.31127072157461    2.03897729642410
H        10.59837153983567    5.76171920295888    1.52661169080742
H        10.28234889537454    3.33129439140255    1.80256685856921
H         8.11939516779517    2.44223473247100    2.56565290662539
H         7.33998843642395    4.72032502183418    5.33249282645574
H         7.00269160368393    6.08780221801869    7.35174054745447
H         4.76312445505185    6.97127743378128    7.88845315243658
H         2.85291682830336    6.46782261960486    6.40586214554930
H         3.18224947851920    5.10259712077523    4.38670584426398
H         5.54536911111494    2.61047825375663    5.96348003633975
H         5.74931529733157    0.28595717563730    6.72710144493092
H         6.09867372463181   -1.53149472832470    5.09780081034291
H         6.26288220990700   -1.01166008038921    2.69053313888424
H         6.05290397865605    1.32086624206656    1.91473917294768

