73
CSD_code = UDEPEZ | q = 0 | S = 0 | Stoichiometry = C36H31Cl2OP2Re | MND = 6
Re        0.80848948248089    2.42407783506225    3.17985150581952
Cl        2.78037370844258    1.65737352726515    2.24321681493701
Cl        1.94573065709574    4.22468314915039    4.15445689939336
P         1.78036315437069    1.18475299746495    5.06554885351307
P         0.89788312221180    3.77907770533955    1.13203582117110
O        -0.70971638315588    2.78440137372108    3.74457803988568
C         0.65847942651181    0.91837464693356    6.47652867072991
C         1.10315268477626    0.17359952589918    7.56680740520885
C         0.26446218891431   -0.03609774328078    8.64431486770211
C        -1.01790663900899    0.49219199890861    8.64177501530751
C        -1.46266585863851    1.22919606039054    7.55744199965940
C        -0.62739514454186    1.44093507815006    6.47350641452032
C         3.21684546506195    2.00179661152904    5.80765495188311
C         4.44494835232065    1.96140229866158    5.15038003467844
C         5.52819601449985    2.64119081944314    5.67429403616940
C         5.39477967505620    3.36601164609806    6.84748808917749
C         4.17137865170282    3.41725671313482    7.49500179279502
C         3.08096150701382    2.74318550288562    6.97743585708866
C         2.32706985974522   -0.51921252416499    4.73108869211548
C         1.51801608424147   -1.31338507665603    3.92468377634476
C         1.85449015346032   -2.63307309260141    3.68941043515029
C         2.99655476998561   -3.17065536459071    4.26096420165119
C         3.79867683065093   -2.38553895898890    5.07164123678469
C         3.46747055516626   -1.06351110866802    5.31147124581622
C        -0.66541796298041    4.57826624044322    0.64649368116254
C        -1.80501410841412    4.44871367341775    1.42830380155739
C        -2.98371476978125    5.06201208506733    1.03835140404212
C        -3.02732743304793    5.79961808112534   -0.13252601626601
C        -1.89130626401401    5.92503914697738   -0.91813219075762
C        -0.71196073190300    5.31670144638361   -0.53391825750922
C         2.07703479456691    5.14829210626080    1.24529765710563
C         1.64013838276039    6.44528750698365    1.49403342719140
C         2.56372249616366    7.46249959592249    1.65156332450460
C         3.91964728319860    7.19118202180191    1.57585863739881
C         4.35692749559633    5.89611512813453    1.34686823031473
C         3.44231763869541    4.87364475733137    1.18435228724076
C         1.33205476773741    2.90634521450257   -0.40459249949723
C         2.14816683791929    3.47394042982709   -1.37655141129552
C         2.39654756369768    2.78860636566851   -2.55291309848796
C         1.83195567058749    1.54288532189684   -2.76784609171598
C         1.01092148310694    0.97962676798267   -1.80401140295209
C         0.75833737696878    1.65852213016164   -0.62716156654165
H         0.17572074735422    1.14965915090742    2.46372287669560
H         2.10370281997177   -0.23670933377891    7.56697731707700
H         0.61042115435982   -0.61289455432509    9.48965054778617
H        -1.66928010917055    0.32658507695090    9.48723132184558
H        -2.46111492733368    1.64025865427213    7.55435938973201
H        -0.96655907605248    2.01417311880108    5.61758798241127
H         4.54066270127504    1.41448847496394    4.22218096172134
H         6.47759702387029    2.61241186319929    5.15939396934254
H         6.24185573106378    3.90161957476370    7.25087193089017
H         4.06172032145789    3.99580894469218    8.40078505798730
H         2.11995450927819    2.80485958017531    7.46910554568902
H         0.63362928343495   -0.87838519098723    3.47940970413366
H         1.22670027089120   -3.24356047653561    3.05759628868043
H         3.26300958670469   -4.20048086916420    4.07405802522119
H         4.68882651035006   -2.80259223276555    5.52001660593720
H         4.10287143977790   -0.45813878792038    5.94316252244314
H        -1.75837123241726    3.86633010119967    2.34181924049711
H        -3.86840098657853    4.96288169951423    1.64934349014975
H        -3.94668486529317    6.27779439245520   -0.43686686347051
H        -1.92627003926725    6.49904436676059   -1.83258077594786
H         0.17544047256013    5.41275437240923   -1.14450254251154
H         0.58212076259718    6.65197515196322    1.57856796387693
H         2.22274420738743    8.46867671786303    1.84802027372933
H         4.63742022142559    7.98745264460619    1.70943060029184
H         5.41470331732619    5.68022741677227    1.30600179337833
H         3.77901145443526    3.85676114818336    1.03194132643993
H         2.59768311219744    4.44422406067895   -1.21575880122721
H         3.03610703444111    3.23055090730298   -3.30322747157376
H         2.03416333022376    1.01057639979778   -3.68557785335194
H         0.56986787422725    0.00802809895279   -1.96959863249111
H         0.12737851017069    1.22758788761251    0.13813163175094

