91
CSD_code = UDEQEA | q = 0 | S = 0 | Stoichiometry = C33H50F5MoNO | MND = 5
Mo        3.08618097076013   10.35551648688890    4.29123205888711
O         2.93200743675572   10.25837921496232    6.19059023852407
C         2.49795652780696   10.21619780683311    7.40443975532098
C         1.99954679124331    9.03215350045679    8.00125734787075
C         1.54526869969356    8.97077824755154    9.30693171141608
C         1.55658841274839   10.10722895724438   10.10843526780958
C         2.02210255942189   11.29958519109548    9.56531006340954
C         2.47440139396786   11.34507696405970    8.25803911410612
F         1.94783596952909    7.91352889420593    7.25188174235081
F         1.08900710225485    7.81219109653495    9.79523652023738
F         1.12135875501799   10.05596631759136   11.37321326359409
F         2.03307134080443   12.41258847296203   10.30699290575543
F         2.89742154398350   12.52927459303758    7.77273533384991
N         3.00203240863837   10.37579088981099    2.54749834023166
C         2.70554022709893   10.23056295412057    1.24136887790005
C         2.68709784249045   11.33313712003039    0.34665367270669
C         3.15658650892750   12.69449438686027    0.79536008976904
C         4.40415604397283   13.10922387275123    0.00966211818130
C         2.05971253855884   13.75178542324200    0.65281715908660
C         2.27189839684859   11.16119411301257   -0.96135801300539
C         1.89029827256193    9.92244277956339   -1.43922014287528
C         1.96199407058180    8.82819510896134   -0.59783589701728
C         2.36492976956824    8.95070003985883    0.71966097252626
C         2.48690265076280    7.70434791271703    1.56303164093874
C         1.19485940209675    6.88344520295179    1.57689274231463
C         3.64891821667543    6.84953832598367    1.04568531890036
C         1.00560547367649    9.61927262116368    4.37500339444681
C        -0.11723792171144   10.65775959612915    4.39113028774536
C         0.01671024901231   11.58354433211403    3.17961927328430
C        -0.07167921092025   11.49022276858711    5.67699522366188
C        -1.47440160615013    9.94104098792321    4.32190042768316
C         4.85496113996190    9.01222298671756    4.16748478543269
C         5.04736018832545    7.76447466436027    5.03551613592461
C         5.34845764715431    8.14144784406999    6.48971698869104
C         3.79870561888523    6.87986406997058    4.96439591838524
C         6.24601947926578    6.96112786352432    4.50407743457755
C         3.50756243583916   12.50036840331781    4.55709898727908
C         4.97339951211325   12.91720491348426    4.71953608065011
C         5.58633077150080   12.23360475870562    5.94798519140443
C         5.05114873942411   14.43707975116311    4.93667353187997
C         5.77511457205067   12.56806454029027    3.45871841967314
H         3.42934502436178   12.60932747030613    1.84897533699993
H         5.19094853012235   12.36802541868125    0.13041183251418
H         4.77174668111719   14.07031460258486    0.36440800769625
H         4.18218426312303   13.20269937206872   -1.05043961827966
H         1.81504939746197   13.91983072000260   -0.39297785594154
H         2.39276591013330   14.69672192810577    1.07801621236077
H         1.15604710584903   13.43748304287736    1.16876338479182
H         2.24879665591135   12.01235935937594   -1.62522852936417
H         1.56073392655594    9.80639516015040   -2.46078817405069
H         1.69906429824275    7.85360718042674   -0.98095577176096
H         2.71168419399052    8.01562876643171    2.59064191312823
H         0.34008663731629    7.51260141243710    1.81488343992175
H         1.26195489630442    6.09553330612724    2.32409849917051
H         1.01384235824401    6.41852754310868    0.61101146499758
H         3.46856776075420    6.53736647552352    0.01961966524268
H         3.76771929102791    5.95668494667190    1.65649570441967
H         4.57751655429445    7.41628167800924    1.06799869553659
H         0.87143037847334    8.97085166628153    5.25389941182531
H         0.83802558686930    8.98635644113870    3.49855148229334
H         0.95720075748717   12.13264940685153    3.23118433683789
H        -0.80764194595126   12.29425091093015    3.14962744541319
H         0.00779326096038   11.00598218720867    2.25674753225173
H         0.87827633409164   12.02095739206342    5.75987675866924
H        -0.20201039260223   10.85466331245059    6.55354568912061
H        -0.87081479516528   12.22953057799399    5.67831359586392
H        -2.28838153016547   10.66250019132393    4.35522262251738
H        -1.59214411853742    9.25463047048466    5.15807530941177
H        -1.55952151871678    9.37309527125680    3.39815003864024
H         5.72348872098695    9.66449535303014    4.34333979346678
H         4.94161108125554    8.68619187337151    3.12492321835951
H         4.54445356898693    8.73070408857720    6.92134676628898
H         6.27066453244706    8.71813751128069    6.55360163133181
H         5.46953324772097    7.24604698983908    7.09648132107619
H         3.72639063241248    6.40742015089849    3.98833527973794
H         2.89811053458974    7.47225802509462    5.13018583256623
H         3.83909101269753    6.09600808813884    5.71783045910546
H         6.39577509929566    6.06585262731668    5.10408395549439
H         7.15713183943284    7.55494641699858    4.54411082221574
H         6.08083950985870    6.65768238772750    3.47261017803690
H         2.98276028575984   12.83147779529424    5.46295257168401
H         3.08455045461951   13.10048034512139    3.74358512684587
H         5.43583348420625   11.15341083057950    5.91646291448113
H         5.13177577120939   12.61908400167292    6.85776297161460
H         6.65563675652575   12.43372803915031    6.00170506822189
H         6.08744164591441   14.74996390224747    5.04750708894803
H         4.50891199730642   14.72466832264141    5.83486143653307
H         4.62120669218506   14.97064753001446    4.09134824833024
H         5.54767771380224   11.55659384277830    3.11554042473109
H         6.84363785041409   12.64674808089033    3.65215195136187
H         5.53248112561396   13.25987361163689    2.65638022581853

