21
CSD_code = UDEQAX | q = 0 | S = 0 | Stoichiometry = C6H7N2O5Re | MND = 6
Re        0.54581641684709   10.86362933105107    4.23791500599566
N         1.20755579309118    9.65320776708699    2.39667235646509
H         1.54065300680934   10.14375830982944    1.56772874648700
H         2.00445624318249    9.12812889594876    2.76641322705766
C         0.37774059453196    7.92733527363606    4.42312266907371
O         0.93666632314706    8.88902348927115    5.01427475901267
O         0.56288723841726    6.73848726760713    4.57320349448139
N        -1.27486568324496    9.63923379015369    3.77187991339737
H        -1.81423753501329    9.44755027434349    4.61940569510167
H        -1.93564457022042    9.99496696199629    3.07720173157856
C         0.04266067753728   12.44722813132192    3.23424232133525
C        -0.66083469810892    8.38610285655078    3.30627717758312
H        -1.39020851208239    7.58875771705009    3.12169972026773
C         0.14161531334817    8.69862930055515    2.04005761501023
H         0.54442090463389    7.76878713701030    1.62350233790852
H        -0.50875453545953    9.16480500345038    1.28861920983982
C         2.31159243140754   11.59380039304588    4.62644256911914
O         3.37113052047596   11.95234406265549    4.86009919346969
C        -0.13348097100521   11.60139362014576    5.90704165816747
O        -0.54672801001487   11.97188175043652    6.90592643566392
O        -0.28914094827968   13.33434866685347    2.58467416298448

