82
CSD_code = UDETOP | q = 0 | S = 0 | Stoichiometry = C33H43Cl2N3Pd | MND = 4
Pd       20.83873219405404    5.53582934568072    1.41931217214961
Cl       19.03772553315640    5.17450686197553    2.77989013664964
Cl       22.64603564200234    6.07820627768662    0.12150431830931
N        22.04568663240401    3.35453690890387    3.08964076363202
N        22.00958670861702    2.86856785394689    0.99530153171680
N        19.94479666674084    7.30070029748123    0.86843082450588
C        21.66860642740729    3.82097213668434    1.88486334945918
C        22.63610554599121    2.12312258489346    2.95474849311338
H        23.02030503164849    1.58214486774489    3.79443270955161
C        22.61711138371230    1.81921014439468    1.63794894446647
H        22.97171224538443    0.95552413025867    1.11459202662399
C        21.75567505759011    3.97065276267277    4.33953768094205
C        22.44940764321900    5.12271605257927    4.71634715621075
C        22.13887899601866    5.70220826274064    5.94062959025518
H        22.65349864039453    6.59825388387940    6.25199354125339
C        21.18141129183542    5.14696647603476    6.76536390319614
H        20.94982619746474    5.61181325174349    7.71245831498984
C        20.51764889219574    3.99825736485284    6.38125598284406
H        19.77156711334678    3.57423972528028    7.03463258979185
C        20.78522774892814    3.38918183591049    5.16327734437470
C        23.52027621907404    5.73873965780044    3.84500553028760
H        23.64942414141015    5.13910748854838    2.93635443757452
C        24.86450132721618    5.78091774391414    4.57417794388782
H        24.81541624666162    6.41869490142748    5.45311491877696
H        25.63119383218376    6.17202029502591    3.90952975181132
H        25.15868730371528    4.78231593508933    4.89164899300090
C        23.07943247160054    7.13713826776199    3.40589393100557
H        22.10337360529575    7.05428711544083    2.90231463785607
H        23.79632016339743    7.55268679216639    2.70114818302796
H        22.98569167920391    7.80941638916871    4.25607866415651
C        20.03592201340992    2.13573819803843    4.77422045129079
H        20.29141163367852    1.86376010887989    3.74642337642087
C        20.43609166560993    0.97543151392221    5.69064825191970
H        21.51010772570569    0.80186704639833    5.65658235596607
H        19.93014200298675    0.06372173396728    5.38062950075302
H        20.16031624762915    1.18765965625849    6.72061498082922
C        18.52387201738670    2.36244942183888    4.81451571021796
H        18.17493778624523    2.53444043430550    5.82896783036397
H        18.00899657842560    1.48871966719324    4.42017972283020
H        18.26863213922692    3.22670219154826    4.20670908446054
C        21.72933790762459    2.91666134105345   -0.40100561613781
C        22.78674533113210    3.01064080088033   -1.30975196065879
C        22.47981099784806    3.04788545743579   -2.66443157398287
H        23.27584328873390    3.12464102034303   -3.38768099145102
C        21.17194983384796    2.98717727233997   -3.09850507536263
H        20.95212848444499    3.02316279693266   -4.15545228127380
C        20.14021731566850    2.85995566609138   -2.18694754712228
H        19.12765893870611    2.78609212832696   -2.54817002248549
C        20.39246303060966    2.81937860957450   -0.82189390946446
C        24.23208935041327    3.02308060216404   -0.87044256935706
H        24.27609840744605    3.15055967829301    0.21467440440095
C        24.88957559456599    1.68761304155865   -1.23590388705575
H        24.34730146077562    0.84750172606145   -0.80601165997222
H        25.91263612401758    1.66210163671884   -0.86754600943970
H        24.90955343940266    1.55734190235233   -2.31533790511485
C        25.00827907512080    4.18498952831044   -1.49073997838196
H        25.08299793302218    4.08569074698292   -2.57015750317079
H        26.01564028740721    4.21152939862604   -1.08101663618651
H        24.51030094688241    5.12098794869428   -1.25388652776311
C        19.27677178277033    2.57269110606361    0.17652020401205
H        19.43601617499429    3.20665772717490    1.06035388973297
C        19.31495022307457    1.10404075072142    0.61785284501480
H        19.15095026055898    0.45178179990025   -0.23867515484595
H        18.53202405077698    0.91931516255315    1.34958684174262
H        20.27017382062067    0.84264461029588    1.06708212495198
C        17.87844691108694    2.89712774646082   -0.34891972876732
H        17.83200609669150    3.90300140887410   -0.75862799941699
H        17.17335407825772    2.84368407724488    0.47726327795720
H        17.56228522199016    2.18622362597321   -1.10986839339437
C        19.51386811328401    7.46987698647003   -0.38447100481545
C        18.94173782503210    8.67152440556143   -0.78994859957032
H        18.60714890414522    8.78222031657945   -1.80988198150423
C        18.80536852436702    9.70616969361985    0.11701147614168
H        18.36416248988464   10.64525958323446   -0.18146366336721
C        19.23553516349540    9.50588298609216    1.41939775225104
H        19.13568027046737   10.27523352641202    2.16798697920368
C        19.79782761362862    8.28634401798978    1.74894128906366
H        20.11971391213395    8.08630935460512    2.76669788225654
C        19.67265472038648    6.32069248615258   -1.32549711101895
H        20.68107699377304    6.33364294574209   -1.74747841573134
H        18.95135643105854    6.37336415725029   -2.13773887234063
H        19.55767027770564    5.37419463821081   -0.77503601803636

