85
CSD_code = UDETAB | q = 0 | S = 0 | Stoichiometry = C34H44ClN3O2Pd | MND = 4
Pd        2.68848101209351   10.45748865703580   15.82143235816472
Cl        3.34908074894530   12.60248131375174   15.80573841612587
O         1.98444359687209    8.50351049506790   15.99734283307491
N         1.08932595690555   10.15385321358444   13.42100167396712
N         4.15198489357304    9.95198143110903   17.20967894797869
N         0.37916756966068   11.85311042909334   14.56690656893698
C         1.27743134997604   10.87262702702335   14.52574459611437
C         1.88378162007638    9.03481358039942   13.04827334203491
C         3.81845128982528   10.62202262680130   12.52593586460908
H         3.10950677801294   11.37493884900954   12.89133246617312
C         0.06369428072816   10.72758435229614   12.55371368852167
H        -0.62452422520600    9.96783765778797   12.18562780666574
H         0.54381173928283   11.20995744712715   11.69228230636943
C        -0.12221206038000    7.52967182908284   13.48284485936232
H        -0.51143997788091    8.45315891768996   13.92146367966548
C         1.31921942505939    7.75364891177130   13.08900989282884
C        -0.60018145320087   11.74083170507206   13.48453235895677
H        -0.78345781088879   12.70377894771971   13.00965917969794
H        -1.54848854705455   11.36899370937105   13.89347101539295
C         3.21441233992392    9.23857119278571   12.65940540985803
C         2.11656075442975    6.67305963459587   12.73952008105308
H         1.70736638700133    5.67664540175692   12.77503351089391
C         5.09330276320504   10.76816585589342   13.36269751819731
H         4.86142098245417   10.63275439401983   14.42855182495391
H         5.49679739644962   11.77079106035636   13.24026909497010
H         5.85372011257077   10.04930797237395   13.06576680318194
C         3.97373319522465    8.12392988924476   12.31808664219080
H         5.00064421923242    8.25138891094256   12.01004158210690
C         3.43382412261268    6.85366730655474   12.36531171271833
H         4.04184937272438    5.99971421161043   12.10630345573892
C        -0.26945739608135    6.43508002588299   14.54049314692666
H        -0.05884148067507    5.45253814250269   14.12710736657002
H        -1.28821918919845    6.42986336621756   14.92312587842183
H         0.41368127862800    6.60925602501371   15.36604398832620
C         4.10455103136430   10.91435961177684   11.04934917941646
H         4.46885252982754   11.93263175304850   10.93505029849457
H         3.20197123293899   10.79933114473079   10.45173798381179
H         4.85765076678030   10.23419718948346   10.65918880278599
C        -0.94758602659421    7.16993887289568   12.24116666829624
H        -0.83233407260316    7.91137888232292   11.45153010858622
H        -2.00206337262319    7.09656394265646   12.49896287770809
H        -0.62523918399599    6.21034810599933   11.84405235674181
C         0.16912471615041   12.76884986662916   15.63393123943958
C         0.34151977232011   14.13721913702794   15.39488194403091
C         0.85433141533609   14.66417185986633   14.07459004803667
H         1.13404698891006   13.81833277859714   13.44082417188379
C        -0.24566621996546   12.29485941514250   16.88394866950919
C        -0.40193206125432   10.82149918693496   17.19049722664986
H        -0.14689173072133   10.22154070815103   16.30781750073706
C         0.58216520702578   10.42571659591792   18.29919547769500
H         1.58405612038343   10.80659979013071   18.04721777323070
H         0.62398610612718    9.34130503323629   18.38831214456815
H         0.28620926460465   10.84588996177690   19.25830794302678
C         2.12151018544327   15.49702260285328   14.27905227678084
H         1.91754105122968   16.39537641778526   14.85481936932696
H         2.52799827219722   15.79358130296092   13.31437347918095
H         2.86347449414734   14.90351691322988   14.80640172389895
C         0.05296281300088   15.02720112004609   16.41939955148076
H         0.17393594150692   16.08635046574727   16.25487163703694
C        -0.50863128004131   13.22348525565337   17.88404333369875
H        -0.82566640590399   12.88118438881832   18.85710892959302
C        -0.22295504686377   15.49147314697095   13.36601899534177
H        -1.14880080731038   14.92862074874678   13.25479140895759
H         0.12195859849728   15.79085649983579   12.37851620721387
H        -0.44627102394665   16.39026167825377   13.93521263159045
C        -0.37405753357197   14.57743988562025   17.65324583947739
H        -0.59081118392195   15.28403798592424   18.44080227901225
C        -1.84127336437684   10.48381952088706   17.58458549367456
H        -2.13045180242245   10.99919529413739   18.49719845671496
H        -1.93512144592958    9.41332386488707   17.75107065749927
H        -2.53441790856575   10.77398821333720   16.79691974531955
C         4.68016843697582    8.72293150643035   17.12421387644357
C         5.17802733873067   10.25853450773563   19.33605086337267
H         5.35499932077912   10.89974122467271   20.18416183351245
C         5.46122891035541    8.20538952792408   18.15987408426287
H         5.85690429965265    7.20591063565912   18.07211274073890
C         4.40033280747998   10.70005401362409   18.28292846174259
H         3.97637226818455   11.69888681471519   18.28435341083818
C         5.71244761986352    8.97765656470454   19.27491006974366
H         6.31566194970952    8.59368824851360   20.08400184386521
C         2.79076018818728    7.54508138798065   16.10558996717339
C         4.32276784171163    7.91694974088334   15.93930092566481
H         4.90201332827915    6.99764323017159   15.87670961001869
H         4.39997260994031    8.48986083343659   15.00854655901475
O         2.51259599806968    6.38337813099546   16.32980145242353

