49
CSD_code = UDEZIO | q = 0 | S = 0 | Stoichiometry = C23H17F2IrN2O2S2 | MND = 6
Ir       -7.08772752455973    5.00238023529472   -0.00001355600793
C        -5.46509837065223    5.90506961141314    2.21205036032336
C        -5.35830578923034    5.64514709458910    0.82333443843721
C        -3.01989015429177    6.14561950404824    1.04921372137539
S        -7.38465018208084    5.95850184534968    4.31725649285565
C        -7.09341817745839    0.67523261726334    1.18111480927015
H        -6.09739437286701    0.79032651787343    1.60144630719556
H        -7.07421649952424   -0.08861686794589    0.40640002136586
H        -7.77846246778845    0.35111172838838    1.96180696343066
N        -7.75049590268232    5.41430331759299    1.85219092141351
O        -6.76621679413430    2.96636839553213    0.70809833588249
C        -6.80077520364527    5.74908475482927    2.70825583579550
C        -7.55870345576171    1.99843346852545    0.59933293960900
C        -8.97295695031885    5.56811778209270    3.76832424462397
H        -9.79689543575364    5.55521688602637    4.45135468534453
C        -8.96752002386478    5.31204261664077    2.43821462386069
H        -9.82408128300723    5.05117926109518    1.84251217280532
C        -4.37201672717227    6.27403424042567    2.99381511796028
H        -4.50242571344275    6.45791290384345    4.05059261095106
C        -8.82162392064388    1.99907833267983    0.00000612265543
H        -9.36155919853926    1.06387692226618    0.00002023728153
C        -4.09564875959996    5.77775112837168    0.26026764359171
H        -3.92550310764667    5.59956216061572   -0.79075698350023
C        -3.13005037632713    6.39724933327919    2.40846782920111
H        -2.25809257923401    6.67907184175374    2.97638845159768
F        -1.80425512393677    6.26515688430568    0.47070707069610
C       -10.83223252082516    2.83379823018603   -1.18109681726382
H       -11.23057123487895    3.75392355683285   -1.60143588161310
H       -11.50333679896774    2.46851526924582   -0.40636835580783
H       -10.77041147473192    2.07846339869334   -1.96178002569474
O        -9.01165648293956    4.26273500619293   -0.70813991992381
C        -9.45365795247652    3.09245657631732   -0.59934005504846
C        -7.11716982678796    6.85893890885920   -2.21205598966707
C        -7.39561545123145    6.82149368893936   -0.82333367724362
C        -8.13148037971044    9.09682025176439   -1.04922636859503
S        -6.11117174124203    5.22324364294085   -4.31725909442273
N        -6.39945821271006    4.63434964271052   -1.85217104110469
C        -6.58441210462990    5.62421178575325   -2.70824759180550
C        -5.65506600535017    3.65255232573907   -3.76831708508290
H        -5.25429278656027    2.93254173681929   -4.45135343256566
C        -5.87954085986276    3.52923010161449   -2.43820365933783
H        -5.67719966259900    2.65698359708320   -1.84250836004355
C        -7.34420875287873    7.99004477414727   -2.99382912310822
H        -7.11975748931071    7.96904501444072   -4.05060592476107
C        -7.91215284534464    7.98126568558897   -0.26027299903047
H        -8.15156497924900    8.03951005941641    0.79074737912090
C        -7.85848264270058    9.12722895923636   -2.40848100514996
H        -8.05039560051824   10.02327707825387   -2.97640187171737
F        -8.63578010033101   10.20935819307458   -0.47072051814862

