89
CSD_code = UDITEH | q = 0 | S = 0 | Stoichiometry = C31H41BIrN7O8 | MND = 6
Ir        6.27113335756588    8.54746898749581    6.96094606368213
B         8.44000678987994    9.33461793760699    4.81228422133112
H         9.28096466188226    9.67488469026786    4.06114664470243
N         8.93593790863371    8.14147530774094    5.65102231204589
N         8.17203654076454    7.57885797950113    6.60209435912492
C         8.81927541865382    6.51141851567834    7.06669124842827
C        10.03998383962325    6.39451637641631    6.39853528189717
H        10.78764243193701    5.64204370541197    6.54772099416091
C        10.07776230995601    7.44806581678379    5.50505862959889
C         8.32786974561133    5.59089597036496    8.12877835402690
H         7.24338927347018    5.57147360137402    8.16260402180904
H         8.70420409062646    5.90542502449219    9.10242027408454
H         8.69990770206664    4.58651693858928    7.93419349947341
C        11.15560645131719    7.79529686436254    4.54252742072084
H        11.52445723275220    8.80300041965648    4.72393812939493
H        10.78969949220601    7.74859841221043    3.51847614721955
H        11.97814491851676    7.09355472632710    4.65384423999720
N         7.17962316961545    8.90722811006678    4.06786871498828
N         6.07875150692587    8.56381243287405    4.75190160487529
C         5.10839749855866    8.32047890298113    3.88002141101300
C         5.61201353989437    8.49661364693030    2.58623066391049
H         5.07874305622954    8.37524337103535    1.66506710539245
C         6.92948692894240    8.87576127365296    2.74553395551905
C         3.70395495147944    7.98999281736062    4.23268468518171
H         3.63469732929909    7.39825236946706    5.13992040670372
H         3.23314452550029    7.45514744981506    3.41062298847943
H         3.15502780178463    8.91679694431554    4.39957702370652
C         7.93864853983744    9.19242531349360    1.70031866524505
H         8.28276776906406   10.22088989743011    1.79486009224479
H         7.49323226083148    9.06194713969388    0.71758551553733
H         8.80418408968134    8.53666517315001    1.78445411782952
N         8.08388469391883   10.48226668949859    5.77224852221245
N         7.28026627858667   10.32801648457774    6.84387363112520
C         7.24305498946444   11.49575880944661    7.49221228990445
C         8.03166125259223   12.41965712375975    6.80672526920942
H         8.19859023749573   13.44431789858569    7.07104510718353
C         8.54510878019700   11.74200245296360    5.71872534687400
C         6.52576585645998   11.77564265949848    8.76454992439274
H         5.57590734667191   11.25561739226522    8.80064338491767
H         6.34959432963173   12.84585460507246    8.84606743126137
H         7.12861091048086   11.46538507840222    9.61739309926967
C         9.43725859946743   12.27168855107228    4.65470280297266
H         9.62967867779561   13.32539348376333    4.83937343173274
H         8.96994183947171   12.16464828711371    3.67796365158703
H        10.38636708539779   11.73887917203107    4.63859732807440
C         6.47813372461947    8.43806857700210    9.05412806408836
H         6.90158481879309    7.46835687636282    9.32205041458019
H         7.18761053316472    9.18798853076353    9.40954288557493
C         5.18594148337555    8.59766639697747    9.87481151951975
H         5.41800013515052    8.44687345649943   10.93259377033772
H         4.78212717538832    9.60049333432753    9.74252983953475
C         4.12501122492685    6.29960590562497   10.14863685324963
C         4.13291199940101    7.61211006279183    9.48014182888326
C         3.25198638741814    7.84241804769178    8.47886817901765
C         2.14574524799241    6.87555736783136    8.21646469507535
O         3.79381345197440    5.25930764714988    9.61610815090006
O         4.57631868723137    6.34349615379637   11.40999521357073
C         4.62148482341001    5.10448083619425   12.09663076026395
H         4.99369867580788    5.32202107829512   13.09454142542590
H         5.28777645325544    4.40791300293563   11.58233048348913
H         3.62449540571429    4.66149925489651   12.14822764815243
O         1.92311745754858    6.37409203832759    7.14089819831889
O         1.41537953572906    6.64876324503375    9.30895754015917
C         0.36896277204868    5.69964514980580    9.17592416967542
H        -0.27841817338455    5.82910146201839   10.03986946795093
H         0.78856187367453    4.69100717647482    9.16098162610265
H        -0.18244793591425    5.87072356214269    8.24899937037593
C         2.01644176336296    9.55763510548844    7.15052524836986
C         3.31152953941045    9.00122115602090    7.59621730939175
C         4.47409067321563    9.49593276362104    7.08712245451393
C         4.36372191135610   10.77756002099185    6.33690980555011
O         1.85107551704863   10.24857646899571    6.17262600910393
O         1.00230588617261    9.18688761387866    7.95435823228990
C        -0.28924591672970    9.61326536771492    7.55512223534218
H        -0.96978235186188    9.30415010727955    8.34488766415220
H        -0.56472945269980    9.14777622589638    6.60584843540695
H        -0.30910560896696   10.69836964582953    7.43208600515477
O         4.70046561255871   10.99218374962046    5.19968989662644
O         3.92311658621733   11.75739887593341    7.15805178594313
C         3.77879340927477   13.03109138025776    6.55487200351351
H         3.51865183061728   13.72140877022530    7.35390095818700
H         2.98776345820609   12.99594396593525    5.80288419190101
H         4.71312666161808   13.32937651566448    6.07303499049446
N         5.42775102130985    6.85650572615967    6.93442631529215
C         4.94651540857127    5.82551507562323    6.75762227468857
C         4.31704298343672    4.55642557840141    6.59090744387147
H         4.14850623822798    4.12564408071269    7.57850747607119
H         4.93516929713338    3.89526466075169    5.98503929576791
H         3.34891376444858    4.71308317744777    6.11447785106573

