67
CSD_code = UDITEG | q = 0 | S = 0 | Stoichiometry = C34H29MoO2P | MND = 10
Mo        8.20381182575181    4.08337202783905    2.99942643028255
O         8.72415456860010    4.46345727801009    0.95967639259820
C         8.09476772742206    6.28214969392278    2.83666441352616
C         9.06479483993502    6.10892225171300    3.84352185566422
H        10.02351503717310    6.59589380909445    3.68472390434324
C         8.97861868526478    5.21472968919223    4.92869899003759
H         9.87998193161424    5.13938286124495    5.53413648233860
C         7.93653748096207    4.34692190019476    5.31029018872624
H         8.13936563867349    3.71564250541726    6.17205548255078
C         6.67612383696471    4.17808350801081    4.69836477345100
H         5.99968369692318    3.47198503357382    5.17361689217382
C         6.09756816444224    4.99753655849586    3.68376137623059
H         5.04990255735112    4.79338595582968    3.47052029475278
C         6.70258110112783    5.94418119762527    2.88496972526257
H         6.09312227074441    6.37581779056102    2.09392371811224
C         8.54091979800498    6.76884429915169    1.51722758392975
C         8.79179683761013    5.72070640403926    0.60339797031149
C         9.14492997288293    6.06738720846662   -0.72079753731653
C         9.26519364088196    7.39843007565535   -1.06202457894479
H         9.54546277829963    7.65250321314501   -2.07568014445353
C         9.04546335793657    8.42858939794212   -0.14931648734286
C         8.67551502507573    8.09567530218207    1.14263323185832
H         8.48105012910949    8.87104782270312    1.87256650155702
C         9.38578376462980    4.96193398360888   -1.70381793754176
H         9.81419663611973    5.34535348794757   -2.62638281100874
H         8.45264186178166    4.44612916974109   -1.93499563023892
H        10.05587584394974    4.22260961160370   -1.26690662569604
C         9.21503493474732    9.85963970695072   -0.56739621397219
H        10.26667570632907   10.07733697571329   -0.75671137076373
H         8.86006314243105   10.53514765958563    0.20745649054596
H         8.66401640539158   10.06067810991776   -1.48526060725792
C         9.73849596379881    2.93638145913350    3.16529311315047
O        10.67786270993295    2.29695173624913    3.35181396737689
P         7.08408636389428    2.43329756647512    1.71211941791493
C         5.44263093990760    3.03915324607213    1.23713114475104
C         5.41080355136481    4.12998335763432    0.36833550698506
H         6.34164188458933    4.49097251199997   -0.05238534888616
C         4.20842243933810    4.73130300163761    0.05045781881801
H         4.18736107403333    5.57306211963787   -0.62678784276178
C         3.02889664805249    4.25677256353035    0.60600871397280
H         2.08853102595653    4.72804475727219    0.36043460088641
C         3.05721830537893    3.18322170805203    1.48048595140750
H         2.13882870183745    2.81903089654103    1.91811202535152
C         4.25985828452585    2.57629542901232    1.80229763495808
H         4.28321237772125    1.74340600036063    2.49190524679971
C         7.77975665687184    1.91180460664841    0.11032441886856
C         9.13968364668100    1.62193134635607    0.07271816607525
H         9.72843597292691    1.76120932707800    0.96904039819663
C         9.72724533905336    1.18894976206218   -1.10111734564796
H        10.78550981793441    0.97423530969912   -1.12681127641622
C         8.96136515196698    1.03585189789329   -2.24622222586481
H         9.42091369291659    0.70423156460272   -3.16570312806320
C         7.60557858860938    1.31185298981269   -2.21066828138280
H         7.00508846854978    1.19248898460642   -3.10130250312662
C         7.01187971475450    1.74495888252785   -1.03719551219355
H         5.95268626643581    1.96468848758778   -1.02410357069739
C         6.74561074851743    0.80565166823369    2.44744530139490
C         7.18473015789736    0.54310126471626    3.73834502059037
H         7.71701834780635    1.32048260986160    4.27600545818149
C         6.94924115214252   -0.69315871274576    4.31465365382275
H         7.29275655554241   -0.89507013491804    5.31860824682710
C         6.27532479619266   -1.67182942092548    3.60305978469909
H         6.09112063173952   -2.63663236986032    4.05201820298726
C         5.84183553938064   -1.41662730902097    2.31105825659940
H         5.32207688667514   -2.18296541053425    1.75462462068700
C         6.07771319733589   -0.18427089849724    1.73137298966744
H         5.74722920158559    0.01676471214363    0.72148462035903

