59
CSD_code = UDIVAH | q = 0 | S = 0 | Stoichiometry = C22H20F6N4O4S2Zn | MND = 4
Zn        6.99648048304316    2.77106798138318    6.76697327082774
N         7.99708308204227    3.88594517581959    7.97591963571568
S         6.88348934906127    4.96055567724516    8.25641987619054
O         5.82150850136464    4.66680662305673    7.32097936360249
O         7.32316991480520    6.31188332980911    8.39101566252318
C         6.08888970998635    4.51532494899396    9.91486982609118
F         5.59585369540744    3.27717050783986    9.87241420395694
F         6.96624246339449    4.57236644055840   10.91782628848856
F         5.08838174378768    5.34438864969695   10.20079430021172
C         9.34443429005502    4.14905750293530    8.04536990628011
C         9.91325233725178    4.74319392994751    9.17265252601372
C        11.27412596296593    4.95322513185557    9.24612214316188
C        12.10341503729500    4.56964134091735    8.19673095374762
C        11.55404070099700    4.00727316622737    7.06789611143847
C        10.17037123101075    3.80109935511004    6.94998664916691
C         9.67043401837014    3.31786573952834    5.68963142547127
N         8.44183436342267    3.12557316510089    5.39646631617545
C         7.98821325572857    2.72386195700272    4.08209627815374
C         8.81071803178261    3.26263786630305    2.90836848463206
C         8.20582427794484    2.81466297305868    1.58094713525326
C         6.76076195832452    3.27993343420327    1.46411925823257
C         5.92578871899215    2.73340494093941    2.61817362107289
C         6.51009560577785    3.17706062201131    3.96289659484047
N         5.82109790255678    2.65676070310534    5.12516068774712
C         4.55034380906830    2.53409318053801    5.18779509892318
C         3.81664404303531    1.92729813288991    6.26672163396161
C         4.42631659463074    1.36346500950992    7.41309676142703
N         5.77571995205434    1.53888360114658    7.60063010582268
S         6.79895302363590    0.37943773423760    7.87319203524769
O         6.31591344394847   -0.95381930867661    7.71098221541853
O         8.00803016709117    0.76956462237740    7.18095743638835
C         7.32103810900236    0.52545827547622    9.68504761156388
F         8.24791147101589   -0.37778791500543    9.99332311075372
F         7.83586039346378    1.73520824585893    9.90989860599552
F         6.29248959827210    0.35581959717856   10.51666352026139
C         3.64588137433655    0.66101934917866    8.33189079348763
C         2.28184379209924    0.55544493233023    8.15874369716161
C         1.66222207854175    1.15330269994104    7.06555768575611
C         2.42309533510457    1.82206115383574    6.13475157506686
H         1.94644239522371    2.27037243587699    5.27433163608122
H         0.59206105198458    1.08375433037268    6.94497352909976
H         1.69089007058969    0.01447002474352    8.88236940467211
H         4.13047227984568    0.21438956783163    9.18544380024760
H         3.92396464756504    2.85262570473089    4.34922764470379
H         6.49391977892872    4.27449961172625    4.02759303262183
H         4.90236144118410    3.09406999604473    2.51279267827034
H         5.90771355650688    1.64192628174508    2.58389378762805
H         6.72748062935019    4.37109645502379    1.47779979404092
H         6.33709845054934    2.94321756404857    0.51666525826487
H         8.79518998912955    3.22012333529234    0.75701420048780
H         8.24316642521091    1.72552819529729    1.51612643065961
H         8.83398016367940    4.35339389852629    2.96095481822869
H         9.83579202849335    2.89544482646300    2.96515319865761
H         7.99422736847325    1.62472450069611    4.06120106240411
H        10.44790908495506    3.16447341614563    4.93579278766016
H        12.19404947302185    3.72510376639824    6.24369191631985
H        13.16962243625942    4.72140307010735    8.26550039933505
H        11.69810743836106    5.40960804482590   10.12781408983960
H         9.26728147001868    5.02566450063824    9.98837812454522

