146
CSD_code = UDIVOS | q = 0 | S = 0 | Stoichiometry = C64H77MoNO3 | MND = 5
Mo       17.24164512841276    8.62808348860083    2.90627610287439
C        17.91071792315273   11.80170317127160    0.69550045013628
H        17.44493425311061   10.83524982612337    0.50616024256619
H        18.44335135684450   12.12055442207489   -0.19970785805812
H        17.12835294513045   12.52958570470235    0.90754010701785
O        17.25363549154623    8.89109605706105    4.83663570578849
O        16.89913696913196    8.54996973845829    0.39831483813312
O        15.63291375851143    9.44949871481542    2.68835045385954
C        17.70643423095851   12.93015829105690    5.56005411776287
C        17.84246128837357    8.79606180087277    7.84659763546918
H        17.80625436832532    8.18232566530214    8.74391906766368
H        17.13893882247652    8.38558481312995    7.12229242807072
H        17.52043916908723    9.80708470610000    8.09618839023606
C        12.18085994589635    8.30699318249012   -0.79757865486456
N        18.89565490611733    8.90599874813141    2.42109399647317
C        19.99914012239595    9.43606599554650    1.87270973747361
C        16.73024256055460    3.60240664195085    4.87201380608626
H        16.00514878314658    3.06557229565269    4.28034158497660
C        12.24861732257287    7.94358897937935    1.59939558176890
C        20.05289621563071   10.81834560819100    1.55470699520687
C        16.51381483300048   12.45295369026070    5.02947139499052
C        21.11843190567369    8.61398460326033    1.58367943107844
C        19.29115413919245   13.11465479861152    2.31435161477999
H        20.06929872004845   13.07750031732428    3.07269499034049
H        18.43095174164308   13.63481628577800    2.72898887004450
H        19.65695384423311   13.69104566745132    1.46714683062487
C        18.68030026727195   12.02462147701086    5.97070685172285
H        19.56977084288736   12.39628539706596    6.45974072781400
C        18.55608398279920   10.66241357502246    5.76255363388927
C        17.25925598109236    6.67399848960436    2.95918565818635
H        18.07696651491042    6.04686367923789    2.59046798317695
C        19.57967619177719    9.71237360416447    6.25811046299899
C        13.19207707422270    9.95880830857213    0.65321288357606
C        16.31553903972618   11.06863279277664    4.91568581305524
C        14.94584458913963   10.54874311309189    4.64981923417203
C        16.23253925680084    5.77955296328546    3.60205410859173
C        16.96192977529018    4.95528976908823    4.65986495175831
C        15.55797711697346    4.89188253266029    2.54161358355012
H        16.28739452166002    4.24755023199762    2.05457500123207
H        15.08939299327527    5.52444155468133    1.78867453170496
H        14.77996621884356    4.27325721969483    2.98456470459377
C        17.42673338854547    2.90775712363633    5.84797643045572
H        17.22927674809782    1.85507951623513    5.99533307166183
C        20.18231003430605    7.94003518944328    7.77065450713266
H        19.90670511470549    7.25817252826546    8.56417309959823
C        17.98199935623177    8.25429682826906   -0.47395582940460
H        18.41142831371830    7.28028755328680   -0.19945557925292
H        18.74455804026156    9.02430283831390   -0.35665547500105
C        11.88009779440896    7.05263537523451    2.75054419302372
H        12.26705591454437    7.42861975421726    3.69263743321205
H        12.26513939402681    6.04696333723069    2.58588632332175
H        10.79490422182176    6.98241421962932    2.82808738213153
C        17.38070840059873   10.18254785167104    5.14901050370933
C        12.91438068701147    9.15990917789574    1.77166298992229
C        14.63655014080610    9.87968353194059    3.45339935730326
C        17.36457583084714    8.20084102763651   -1.88242091334992
H        17.82487529307645    7.41707406552663   -2.47964824677212
H        17.50021639272685    9.14937720286905   -2.39876979873218
C        22.49136095361362    6.95459757475110    7.81340860228136
H        23.49539908534392    7.37137591695653    7.77579259293537
H        22.47854137183316    6.05150842537103    7.20158425872721
H        22.26485203069797    6.67113823152025    8.83905407216997
C        15.87465822732963    7.92890633920469   -1.60996442731680
H        15.26222565166769    8.77900836935991   -1.90505523639996
H        15.50701744456122    7.04398600566202   -2.12353711316187
C        22.23944195803131    9.17328074320169    1.00272690785420
H        23.10072003243694    8.55956205081890    0.78877361084782
C        13.88998892389293   11.27658281933699    0.80961648725020
H        13.83205177669676   11.85517546497935   -0.10992267280552
H        14.94371475528701   11.11436786829576    1.04624357568691
H        13.44738744209520   11.85423887759093    1.62079164577503
C        15.43944906114770   13.39053068048011    4.53525997401350
H        15.04767272969034   13.01122474318490    3.58687919457415
H        14.59980788143910   13.40390076257232    5.23513437155950
C        21.48397640499813    7.93481163350018    7.29164909369928
C        21.19808197328853    6.96449297110630    3.44713264198001
H        21.08658039657345    5.91658942108426    3.71778898498580
H        20.44374054522177    7.54010706004773    3.98177851213448
H        22.18541220737630    7.30171116488987    3.75477722354949
C        15.83062019094163    7.75357117723668   -0.08758045321129
H        14.90357938192191    8.10301654924375    0.36785748389278
H        16.01283689549096    6.70215224356146    0.18065441964889
C        22.27919105294130   10.51962066100360    0.67774773527047
H        23.15987997905859   10.93863552607779    0.21349941804050
C        21.19004588692293   11.32692011502085    0.95159471138064
H        21.23685027448187   12.37343933199931    0.69055445302554
C        18.60987041707793    4.90045170605333    6.42453078179734
H        19.34885348959213    5.41823962210347    7.01694932236851
C        17.90894826646765    5.59474909892380    5.45716288585691
H        18.10748441057365    6.64791773974793    5.30180703905727
C        15.14239624491490    6.60185686936441    4.30226421393421
H        15.58229655151461    7.24891642931921    5.06165556154182
H        14.42203551945927    5.94390434916509    4.78851030199182
H        14.61564069969431    7.21065165090469    3.56641956286658
C        12.81524710098518    9.52633424890538   -0.60897214250648
H        13.01532769143003   10.15850921440529   -1.46365805300882
C        13.29013198909691    9.66146790559197    3.11348789381301
C        19.22745912430758    8.81047290495216    7.27057453197041
C        18.87499021287225   11.70772903018347    1.88423939408048
H        18.32949262085542   11.24036766115112    2.72281183671886
C        21.82252107451954    8.84730425822092    6.30669451743313
H        22.83642354124598    8.87283355451510    5.93168338076150
C        11.90729659873540    7.53130022576047    0.31734035650925
H        11.40367749559227    6.58261538336359    0.19197924767328
C        18.37151396840149    3.55091130070390    6.62571276057689
H        18.91834844631082    3.00442846807538    7.38065290290934
C        21.99503665419420    6.25869540957772    1.17073150204707
H        21.75798849827712    5.21283622485661    1.35553483169372
H        23.01797306310982    6.43045123470345    1.49763000679804
H        21.93262555187329    6.44239613704090    0.09993248665879
C        21.01811867647659    7.14824892998294    1.93651987562670
H        19.99485411784472    6.83709909351262    1.68960246975556
C        11.77499626689633    7.84785142140443   -2.16558856837001
H        12.30661066825396    8.40053439405130   -2.93654088148225
H        10.70583327721707    8.00412859104730   -2.31119377181301
H        11.97611694834187    6.78563274603249   -2.29065510782074
C        13.95259718887293   10.73812289103235    5.61818908998488
C        14.34499491816521   11.20789687742486    6.99620520971482
H        15.29039941429560   10.73605598251354    7.27469012285642
H        14.52042304763340   12.28712337760089    6.99365177186919
C        21.33461966633608   10.71247513196913    4.73699087428805
H        22.06507116122279   10.25565258654503    4.07278824586179
H        21.79973380803495   11.58335435081634    5.20165672530426
H        20.49050693383342   11.04663276427995    4.14350549396450
C        13.27201685141739   10.89495278913316    8.03272851216278
H        13.20876454327098    9.81585083803411    8.18881750174988
H        13.53631900822485   11.35882117759488    8.98515810260256
C        20.89347016392343    9.73783715692656    5.78659698164783
C        11.51141454773177   10.60562110288906    6.31206256121514
H        10.65303360005733   11.07313970569846    5.82222462962446
H        11.19224748504070    9.60856085600864    6.63579668886332
C        12.62710095418889   10.44186008423720    5.31302434999716
C        16.70479531429850   15.24052112697448    5.61200367392607
H        16.06995379714458   15.08514266071004    6.48743245804831
H        16.96265460412316   16.30067545222698    5.56734976344100
C        12.31300453335239    9.97061125467467    4.04556158720776
H        11.27640402021078    9.81493388357033    3.77982416961087
C        17.97168676741348   14.40274474331541    5.73607870472757
H        18.44013228471622   14.56841173131867    6.70965174652414
H        18.69150272201334   14.72477375860911    4.97597821816115
C        11.92989451299084   11.41327898405789    7.53400887862075
H        12.02566628400319   12.46863829974412    7.26804442080435
H        11.16798554745634   11.33088790788253    8.31178834126077
C        15.94785717692364   14.81752707242235    4.36034936623227
H        16.61636519077774   14.87654582738676    3.49813865350787
H        15.10468007372066   15.48636604985028    4.17391650931996

