47
CSD_code = UDIWOU | q = 1 | S = 0 | Stoichiometry = C13H25N6NiS2(1+) | MND = 4
Ni        0.68415025906991    1.27067260361958    5.03200197605975
S         1.81411251531144    4.47765099519225    7.80639793947146
S         2.39270076266047   -1.96405394165283    2.60810320098190
N         1.82077551811182    2.34927233045115    6.04572643222786
N         2.01460029225313    0.18918374722525    4.29576307886317
N        -0.15644625385333    3.27407228528841    6.55780257214210
N         0.19966712594984   -0.72304920229557    3.34683197626632
N        -0.66538877972565    2.30372691609115    5.71814034060418
N        -0.48223517697367    0.23793074289285    4.06580187080913
C         1.17277903314263    3.26564238330567    6.71579105798546
C         1.52957446086358   -0.72532169429696    3.49755093960912
C         3.61824254795812    4.23827489002410    7.66739407150007
C         4.13991503164978   -1.50017793591333    2.85965552179064
C         4.18942279815877    4.78368906729270    6.36618067940827
C         4.53940305275946   -0.26352291030781    2.06732093626610
C         5.69387097616952    4.54444244338501    6.30303714113967
C         6.00425868638228    0.07909782338361    2.31437244519835
C        -1.97724109865950    2.23070548327667    5.52291061502482
C        -1.80638954200669    0.30114306000611    3.98083243100418
C        -2.89183250283652    3.20172189271417    6.21349195009200
C        -2.54812839893776   -0.67672557885775    3.11493332605630
C        -2.52555589954672    1.26369332338199    4.68434324176254
H         3.83414109238697    3.17899465764099    7.81479433222312
H         4.01857486277697    4.78769451823481    8.51979390014926
H         4.31628241964566   -1.39319158171915    3.93104755006396
H         4.69223712922249   -2.37303215461623    2.51078609088876
H         3.98602485941949    5.85418996196748    6.31108208516188
H         3.70464565576101    4.31304506059802    5.50703250334494
H         3.91039777579212    0.58702279322562    2.34219635510144
H         4.38307673790235   -0.45783779803296    1.00510104329329
H         5.92279646039887    3.48162897167207    6.35018333618659
H         6.09586866904738    4.94142226981246    5.37533702290519
H         6.19454048816054    5.03851992252947    7.13144202274230
H         6.64619608320734   -0.74354697751281    2.01065269618661
H         6.18499342841615    0.28340614589915    3.36779116981361
H         6.28247348933241    0.95897601521096    1.74149757869990
H        -3.92217228385438    3.00201561113266    5.93886866013833
H        -2.66059202241328    4.22756329224466    5.92509104139165
H        -2.80979471862971    3.11077240280067    7.29704206137242
H        -2.23993150347046   -0.58674218616937    2.07282839270146
H        -2.37610429211434   -1.70051822021626    3.44859851183297
H        -3.61451114178482   -0.48389591940670    3.16534535984314
H        -3.59580997028373    1.25929756610847    4.57123254427984
H         2.82772452500691    2.32659231203493    6.17139821688523
H         3.02054254786725    0.18146791801348    4.43124877244923
H        -0.76392612272153    3.93129204203016    7.03010226185748
H        -0.29002957698286   -1.38570534767281    2.75932274623439

