54
CSD_code = UDIXOX | q = 0 | S = 0 | Stoichiometry = C26H21N4O2Rh | MND = 6
C         4.93549378357296   10.57547866790359   10.46869131146149
H         4.96555178228244    9.50984893009018   10.28258539776744
C         4.84173482672533   11.06478536601592   11.75648350071297
H         4.79416790729209   10.37638100196832   12.58678156707709
C         4.80383615102571   12.43202686717605   11.98587598262185
H         4.71838137907603   12.80760759929801   12.99472771574463
C         4.87259204008983   13.31726768155468   10.92073230293813
H         4.84088316313495   14.38179356396955   11.09963370993482
C         4.97599785927129   12.84279484994904    9.62857128071736
H         5.01843429003115   13.51319771984226    8.78378440035880
C         4.99780250189624   11.46622274064671    9.39535704918557
C         5.06290720895267    9.90532306225412    5.80774085856541
C         5.09982875947546    9.34191015204114    4.53980314495024
H         4.62024371440146    8.39054020161158    4.34727974113195
C         5.76646556540497    9.98282430577497    3.50578802403336
H         5.79196741270067    9.52444550378200    2.52739603034103
C         6.40299500919613   11.20327443085137    3.70678348811166
H         6.91000077427391   11.68577127289534    2.88445753192505
C         6.38489094645145   11.79334651227133    4.95092346064848
H         6.86229125310126   12.74266977472485    5.13818279658842
C         5.71948702896975   11.14715569152576    5.99652171448513
C         5.45518519026816    8.00438306533795    7.80038466326845
C         6.73672743354093    8.06452568704683    8.32983665413098
H         7.20446222654105    9.02032307450280    8.52949494700953
C         7.44226637095839    6.89979114759501    8.59460186152196
H         8.44239093726537    6.96646753418539    8.99872246066988
C         6.88565898055052    5.64908109834843    8.34783520015698
H         7.45240029934149    4.75671624269067    8.56822589770078
C         5.61551476417924    5.55100123455968    7.82481851422138
H         5.15236286884850    4.59646668707579    7.62851910643210
C         4.90422392137256    6.72263168815065    7.55119213747087
C         1.86458038404499    7.83991739619922    6.25336582383557
C         1.48287987396033    8.90714976605521    5.43816826032975
H         2.18974414212344    9.69892157559931    5.22662614729388
C         0.20936743291019    8.93685303805960    4.90537331895002
H        -0.08569711109053    9.76109671047315    4.27357135817088
C        -0.68987789882092    7.91773725803674    5.18095946810570
H        -1.68795451917776    7.95313680166864    4.77026612116300
C        -0.30952143016036    6.85459270246961    5.98587734191906
H        -1.01082227238078    6.06234127379911    6.20203789854792
C         0.96331256127826    6.80654270350204    6.51761669155170
H         1.27730500971128    5.99456587086005    7.15560451576132
N         5.69264396577178   11.68726928996167    7.25147667873506
N         5.07098843811899   10.96677439317755    8.09351281598816
N         3.64949694122566    6.67265818375943    7.01247051917279
N         3.14845796402968    7.82134779933014    6.80192781909209
Rh        4.09363179574137    9.39948598803049    7.45782348297292
O         2.65813178231897    9.32160947623927    9.19160676782965
O         2.27643083357515   10.73052301424215    7.56536211264716
C         1.96132358457203   10.22938252126596    8.67302262444089
C         0.73690919500069   10.73483971013958    9.40115897655842
H         1.05842884852890   11.41078584653439   10.19210186260474
H         0.20865755616845    9.90039800427329    9.85457698316251
H         0.09013657235664   11.26951732067724    8.71165995928272

