47
CSD_code = UDIZUF | q = 1 | S = 0 | Stoichiometry = C18H23CuN5(1+) | MND = 5
Cu        4.88211372928127    8.38355811002729    9.43411826921107
N         4.03594570547604    6.63331749957183    8.74105129447282
N         3.81510752431864    7.81613452921557   11.12130367253281
N         2.72336691220981    9.09642325871430    8.88658846362057
N         6.29979561298884    6.78248550615552   10.37088846067330
N         5.96841377415816    9.76918725103586    8.88499131544103
C         2.22502665750570    8.03387058677490    8.01538059246050
H         2.59784920574887    8.23085384220733    7.00564899800237
H         1.12519711296843    8.01823575073075    7.97725693471595
C         2.74343793009784    6.68590051358174    8.43663141719674
C         1.93531399247010    5.55972819093559    8.50389075225504
H         0.89160890196495    5.61888484453401    8.23921548979615
C         2.49495647009573    4.36267701977038    8.92178774847868
H         1.89324701321737    3.46912535871352    8.98129322640021
C         3.83200901573145    4.33452592996865    9.28607488995334
H         4.28916550518629    3.42437313211613    9.64031642700759
C         4.57273332114208    5.50386664311417    9.19090567926910
C         6.02309440592239    5.58248226125138    9.58258668237968
H         6.31936916084359    4.66650399070759   10.11562043699072
H         6.61179246992412    5.64711603660482    8.66250263057270
C         2.02999430621101    9.11234488135084   10.17322107008425
H         0.93754096748294    9.06054016672989   10.04997033010210
H         2.27249912014856   10.05729545100396   10.66877152407452
C         2.49959627741833    7.99600724124338   11.06590296624770
C         1.62636189417297    7.19788513214877   11.79127824128812
H         0.56255786669262    7.36828155127372   11.74478512192091
C         2.14852318239149    6.17714063399668   12.56996194380163
H         1.49561075971333    5.54179468145242   13.14794970020800
C         3.51858843263135    5.96729214426006   12.57621113522919
H         3.95199063189951    5.16413882738503   13.15064369121605
C         4.32441797634123    6.80927898491837   11.82325462996030
C         5.81862613529449    6.65034535874222   11.74527845893833
H         6.26851792830524    7.45583571331345   12.33355835903647
H         6.11869149804643    5.69076785932877   12.19255414494805
C         2.63120283671468   10.39151437269137    8.23019417970287
H         3.20654085036917   10.36887859354588    7.30693060049715
H         3.05622334133122   11.15492355805177    8.87870105348263
H         1.59488591820911   10.66477005672601    7.99488437527160
C         7.71898383534683    7.10179606250270   10.34618113088907
H         8.33072840797171    6.30665730752664   10.79055939554013
H         7.89019414139456    8.02431010095112   10.89742171059211
H         8.03610496869558    7.25396568820505    9.31639992320563
C         6.74294179109787   10.60211526477046    8.72823605138272
C         7.69239802277084   11.64107603743194    8.51325759658410
H         7.21761045147523   12.61036467195042    8.66578683645005
H         8.07676211513088   11.58734865217883    7.49458777142531
H         8.51996192148980   11.53458075059041    9.21456467649109

