59
CSD_code = UDIZOZ | q = 1 | S = 0 | Stoichiometry = C22H31CuN5(1+) | MND = 5
Cu        4.04378817152979    4.71816281004401    9.52389605103251
N         6.09941275257590    4.78118899292015    9.45812678820693
N         4.47237435613882    3.57394251861482   11.18485213576944
N         4.50670952125225    2.59214892863887    8.60024378469878
N         4.56843244440547    6.40859926673000   11.08540279817773
N         2.56952244990480    5.33899294224241    8.57903336740178
C         5.80488676261793    2.89213634013574    7.99927359495319
H         5.62666100393107    3.49368952579340    7.10300169212660
H         6.34756534512006    1.98111156550862    7.70836375678249
C         6.66119208492802    3.69149225012592    8.94302455039398
C         7.94953635675370    3.30745703460419    9.28373542629984
H         8.39331525486631    2.42822930454956    8.84444972896659
C         8.65102579303415    4.07103876197204   10.20426179245310
H         9.65635337161031    3.80021272310993   10.48727559810854
C         8.03144184144684    5.16929186197960   10.77583208915959
H         8.53848167528254    5.76554896336122   11.51777348315366
C         6.73831173079238    5.48943835031736   10.38201611262659
C         6.00086688657008    6.66271966657975   10.97252519816121
H         6.45115276135299    6.91695071919451   11.94297529249993
H         6.15312321958806    7.50845227016937   10.29925727476222
C         4.64200015177316    1.66096331906550    9.71501928238843
H         5.39824484925556    0.88769001691322    9.51583082034208
H         3.68386753097134    1.16134713696713    9.87093916697741
C         4.98774954634981    2.36390759511102   11.00183256497325
C         5.79791570198528    1.76840368010464   11.96062741102494
H         6.19554163161684    0.77896238675404   11.79936768397789
C         6.08785790718080    2.46905173739427   13.11888859395506
H         6.71034646832817    2.03039944023715   13.88323659538568
C         5.58988197897547    3.75437839822434   13.26909953531793
H         5.82397076706952    4.33752604158571   14.14550246544449
C         4.78973590694301    4.28027563118429   12.26585870321828
C         4.25368999675954    5.68513097061531   12.31595216752226
H         3.16436186511892    5.63432241485214   12.40417555854190
H         4.65450888649595    6.18939568629558   13.20707136698905
C         3.50646736046452    2.18880104122948    7.60067648433834
H         3.49489797211116    3.00187471856125    6.86537438822979
C         2.11470865003896    2.10464961057978    8.22885646542266
H         1.94156987221531    1.13853659272827    8.69689242155220
H         1.36030360136586    2.23153911581317    7.45716803048329
H         1.99152832433161    2.88843724714411    8.97284575970269
C         3.83699826100298    0.88086395734208    6.87611731741401
H         4.77014738238308    0.95470463997797    6.32385656729196
H         3.04635733801741    0.65410946417671    6.16629919718204
H         3.90840822278308    0.05258182755378    7.57687624375595
C         3.73316848883724    7.60620939489202   10.91053906735422
H         2.70016323339660    7.24624492840700   10.98346974013540
C         3.92503258222569    8.20268755022357    9.51551747861214
H         4.78135728767801    8.87173728624544    9.47751030042369
H         3.04701481639039    8.78325602344465    9.24567945912735
H         4.06067234338803    7.40894611427413    8.78419953832293
C         3.95040446799961    8.68271360016565   11.97767773179315
H         3.71029741587624    8.31403114621539   12.97141183333490
H         3.30246417153446    9.52982875056741   11.77043853901728
H         4.97859576822411    9.03610121808692   11.97341977098987
C         1.63816879063679    5.76359334833608    8.05883457808707
C         0.48664927391208    6.28681851339690    7.40580557146976
H         0.15812908205662    5.59411697201894    6.63107184058570
H         0.72618951452331    7.24687496828889    6.94840729817483
H        -0.31872119391754    6.42308271843445    8.12753194540571

