54
CSD_code = UDOBIB | q = 0 | S = 0 | Stoichiometry = C20H28CuIN4 | MND = 4
I         5.23568537940717    1.80261106465166    2.18162910142730
Cu        3.39530273562163    3.40521409153776    2.53846123527772
N         1.89451695446241    3.87520981719755    3.85359073247782
N         3.41143073570310    5.42216350950095    2.32227596841741
N         1.64251875396906    3.56507838905926    1.11761106768272
N         4.46561499527970    5.30770786082169    5.52552298299017
C         0.44382939026063    3.59666105588253    1.94535004323046
H         0.11230771622425    2.56872357289493    2.11039323480676
H        -0.37722929043435    4.15100923646476    1.46363361900827
C         0.72863295377666    4.20537175820757    3.29452738233494
C        -0.16163974637184    5.06499743342571    3.91539589132070
H        -1.10313060730761    5.30378334159154    3.44463856292636
C         0.18503895198501    5.61910636648649    5.13951007014377
H        -0.48989806218512    6.29297006839294    5.64546048541613
C         1.41740601443397    5.30855314469303    5.68596627816758
H         1.74498418454728    5.74020130459073    6.61761550358083
C         2.25571676461731    4.43286192989990    5.00778446865819
C         3.62460080317707    4.11588195103212    5.54052518382059
H         3.52288847756577    3.77829126429793    6.57268969001420
H         4.05286761825900    3.29737677631225    4.94135667059607
C         1.91877348642542    4.86987476609820    0.52400827656232
H         1.03759874279662    5.28829663082036    0.01270867965087
H         2.71930259937962    4.73972874779670   -0.21186200559683
C         2.39724635863196    5.84577675414976    1.56708600445010
C         1.81457669721833    7.08628318639204    1.75798629039113
H         1.00320822834829    7.41156562344304    1.12475230233827
C         2.28614368382284    7.89401708252309    2.78473875237060
H         1.84873177016056    8.86556099035911    2.95934151361411
C         3.31226022368454    7.42641667082426    3.58665278998268
H         3.69123184744538    8.00893333980363    4.41082179486072
C         3.85524625181369    6.17424976469216    3.32598687659920
C         4.95360911026143    5.60881426075045    4.18420226138220
H         5.36488079669771    4.72133874365603    3.67944847496295
H         5.74537844663741    6.35771093776245    4.27004951938832
C         1.68592404337978    2.46882203043061    0.13913259303028
H         2.66810253055965    2.55140629347084   -0.34082377355700
C         0.60529977089721    2.56299440531971   -0.94203320343576
H        -0.38936979827711    2.51167071630581   -0.50320375426856
H         0.71502714063089    1.72998753489322   -1.63111893688590
H         0.69001831940295    3.48539879853826   -1.51234483073931
C         1.62416550231481    1.10661758591545    0.82812649228519
H         2.19474449953001    1.12427116388322    1.75287603856129
H         2.06220120297613    0.35454293854024    0.17786439545988
H         0.60116454677116    0.80546315252799    1.04645723020489
C         5.52116990703474    5.30755683281513    6.53860209338048
H         6.13574127188056    6.18901445712102    6.31948307603837
C         6.42561548716927    4.07155590594240    6.51155240930651
H         5.88123773211856    3.18091405832120    6.81512093141811
H         7.25951901317164    4.21141063503616    7.19446099066843
H         6.82469139713874    3.90678326071504    5.51382632181601
C         4.91747699294201    5.51753203077021    7.92823548936450
H         4.21534523861009    6.34724281377115    7.90682878781055
H         5.70850390900253    5.74819121814402    8.63692813148683
H         4.40028832644675    4.62948273151477    8.28306981480531

