39
CSD_code = UDOCEX | q = 0 | S = 0 | Stoichiometry = C13H18CrNO5P | MND = 6
Cr        0.16136312459300    3.47607509970302   10.23528247842100
P        -0.15028149763412    2.63161121404278   12.43660315873621
N        -5.03824749570658    3.46709688021488    8.63125833138514
O        -4.13661138866962    1.58903245763184    7.70818079154504
C        -0.27430000138232    5.21321191238149   10.73347507301688
O        -0.38971708026883    6.34087487706165   10.95994574044923
O         0.54340566933145    4.41179957094984    7.41432609975110
C         0.39977736648911    4.06707895739028    8.50967900429246
O         1.31276034606270    0.90977038202633    9.17531956977147
C         0.79054004420658    1.83225255966548    9.63780747837663
O         3.00065749945945    4.27971994258445   10.79966268572292
C         1.90639616405004    3.93782577003044   10.64186278988297
C        -1.67548158939085    3.07377314520880    9.67675287968160
C        -2.78439989785180    2.90743367445313    9.15543708181033
C        -3.96522487480766    2.66412050389634    8.51071015894790
C        -4.97527782016310    4.67075010324252    9.41890520277994
H        -3.98187728457406    4.76774898760859    9.85362186292379
H        -5.72059249518747    4.63667334106252   10.21771856636926
H        -5.17744683344787    5.54197797053967    8.79115841024503
C        -6.27660402398667    3.22284800393202    7.93937725378464
H        -6.21766016549052    2.28303044808070    7.39828821099634
H        -6.48035415262072    4.03190336889469    7.23244577617726
H        -7.09917366414293    3.17483089811930    8.65765236559062
C        -3.00718027809587    0.75478887792573    7.54200668283933
H        -3.30525196784858   -0.01205569777628    6.83022667207683
H        -2.71735836794647    0.29696466580150    8.49149277989809
H        -2.15528570776681    1.32099235140609    7.15662966595572
C         1.21250836930015    1.60033772960183   13.11273142599351
H         0.98935630616594    1.26121829614876   14.12506200257150
H         2.12881488188851    2.18970223567222   13.11725348964594
H         1.35940910440711    0.73979443513750   12.46084861721611
C        -0.34253846426608    3.83199461907127   13.81589463779025
H        -0.43053534463030    3.32337408399005   14.77666043224580
H        -1.23097361337184    4.43637281758799   13.63606359876713
H         0.52556955805503    4.49030364270944   13.82739070224379
C        -1.57879806755838    1.52406931349182   12.77986715444468
H        -1.58966449295060    1.19922755232013   13.82076654304860
H        -1.51012415705442    0.65775986449667   12.12324522274523
H        -2.49789770623757    2.06051514420798   12.54798940157045

