75
CSD_code = UDODUM | q = 0 | S = 0 | Stoichiometry = C32H32BN7OSZn | MND = 4
Zn       13.45513645236237   10.33622237009139   10.17112891461398
S        13.97824109001920   10.61272437027132   12.44488412734133
N        14.13332950834844   11.36377268263036    8.57967313676803
N        11.56033324119599   11.00892876745774    9.67179576602019
N        13.01580803141069    8.60119270403527    9.26899024438618
N        13.40067605326679   11.16491423746309    7.47273056396405
N        11.20380439722264   10.59396582517659    8.44621246297215
N        12.80697747099566    8.77556596400181    7.95789627740418
N        16.12051329747011    9.18742259439932   12.88464251563641
H        15.91837767254387    9.45482798500069   13.83432479471442
O        15.39356838610109    9.30503089979277   10.73963430892196
B        12.27214154723966   10.11928230051229    7.44691709626411
H        11.82299649699259   10.01058581431618    6.36167286754391
C        13.71533638778828   12.08834916224354    6.54673423023856
C        14.68091495629354   12.91745238661484    7.08759864158669
H        15.16228187869404   13.74980543536871    6.61598361297379
C        14.91497673158673   12.42315393510469    8.37459892995394
C        13.09230790134114   12.16063100410544    5.19931693675229
H        12.02802760889273   12.37486423327811    5.28155277789643
H        13.20688842767591   11.21704198199047    4.66967830877111
H        13.56596891011094   12.95030186214868    4.62233395357550
C        15.82681713143398   12.93942353528209    9.39122740762594
C        15.87400593336531   14.30652758739325    9.65220950888780
H        15.23226509031551   14.97670757184325    9.09834764923438
C        16.71917326679892   14.79964001600084   10.62846541084497
H        16.74476117467601   15.86061938588372   10.83143319763981
C        17.52725602374022   13.93646721862599   11.35002054707802
H        18.18218399023979   14.32370864914510   12.11701611398044
C        17.49611989348649   12.57811007993153   11.08308872001622
H        18.13097643350813   11.90290095586734   11.63860200776934
C        16.65559714337452   12.07932940968522   10.10515036372372
H        16.64146284169979   11.02464775017341    9.88024571503511
C         9.86970740150088   10.69008594358471    8.30072195914747
C         9.35168004131779   11.18607170965395    9.48245134635840
H         8.32527237757467   11.39967011293687    9.70071865183142
C        10.45732304535782   11.38069176203462   10.31983080621846
C         9.14405849947531   10.30245052097962    7.06289076914520
H         9.31960330052299    9.25354643978433    6.83049082768929
H         9.48113111625587   10.89677617654804    6.21548093238887
H         8.07801432126701   10.46015197220023    7.20171137839786
C        10.48961542260031   11.93573745370231   11.66660530435969
C        11.53123380459088   12.77381268559525   12.05693943583159
H        12.31314643485620   13.01441052671050   11.35164187539552
C        11.55788277498856   13.30190102670517   13.33332306309547
H        12.37483357464636   13.94265716138415   13.62937140462341
C        10.54459164279490   13.00778935103273   14.23030403380349
H        10.56850683555076   13.41936005168174   15.22882866460619
C         9.49910725397731   12.18500452434241   13.84514057392355
H         8.70692603404631   11.95420419240214   14.54310164194173
C         9.46868812884805   11.65229626139983   12.57031082769364
H         8.66145609814964   10.99801220169043   12.27397336755385
C        13.05798144091662    7.63067086038715    7.29885010516751
C        13.45117895651769    6.68642482381120    8.23010189128597
H        13.71119302880973    5.66428278460912    8.04381071609966
C        13.40840127944110    7.34315857841310    9.46518786456478
C        12.93085018355776    7.48509841653577    5.82534934106635
H        13.58475944019843    8.19126971242991    5.31657803209476
H        11.90899535396356    7.68118773582132    5.50487693860614
H        13.20484462223924    6.47533544200743    5.53283913906319
C        13.71127759693900    6.84010077198063   10.79697881770371
C        14.69423976167686    5.87128617054802   10.98200201638620
H        15.22790868948848    5.48505036143351   10.12634209656432
C        15.00627069431641    5.42788236142735   12.25331772710260
H        15.77503581724771    4.67978278418835   12.38760246947777
C        14.34363455714610    5.94596854326346   13.35424618868369
H        14.59484418576234    5.60388448616949   14.34818717655898
C        13.35641182042715    6.90152089947083   13.17736866099515
H        12.83607902346154    7.30916609513027   14.03162784030067
C        13.03534866481839    7.34210329153772   11.90755606988275
H        12.25470442381107    8.07766476324725   11.77103591370116
C        15.27107273112738    9.59932801455508   11.93184309304773
C        17.22105875506998    8.29508682102072   12.62535219112977
H        18.16436793093899    8.74898542420597   12.93635102472832
H        17.24288244892404    8.10667841271808   11.55346830397602
H        17.08445511467524    7.34833369490790   13.15228240763808

