69
CSD_code = UDODIC | q = 0 | S = 0 | Stoichiometry = C31H30CrNO5P | MND = 6
Cr        5.15900133688243   -0.49235972258181   -3.38616897058229
P         5.71261511404592   -2.79268573597414   -3.10342605980817
O         2.09887490397583   -2.11103371445653   -7.47684962172929
N         4.04636247882925   -1.68296714381401   -8.57609670512939
O         2.38434557229803   -0.82650395492709   -2.26498169646330
C         3.46114652836097   -0.76583622739487   -2.68005845664664
O         4.47834976592803    2.41637822392110   -3.66507076299623
C         4.73123525477102    1.29042109604890   -3.58552004286266
O         7.83212940686306    0.19631869002662   -4.58663801138344
C         6.81429951126518   -0.13231330805064   -4.14954013349529
O         6.24940361316342    0.48066014252134   -0.75936058703239
C         5.84557882093699    0.01660830968098   -1.74094260622446
C         4.41291252445043   -0.94522953604273   -5.14112937392358
C         3.93811432446078   -1.24307820179831   -6.24180899366557
C         3.37302496786912   -1.66562272522655   -7.41315549540687
C         5.41185042660329   -1.23220408227601   -8.64728763831593
H         5.75248499866014   -0.95046451681663   -7.65273049324370
H         5.48996609822577   -0.36861001530889   -9.31266216355218
H         6.04981707997981   -2.02923291691788   -9.03582749296434
C         3.46412203737385   -2.14672151499402   -9.80769435205415
H         2.41825540129483   -2.39418251324687   -9.65142187291470
H         3.99444455734590   -3.03384696878019  -10.16493266195345
H         3.53867166141762   -1.36771254994311  -10.57066258464085
C         1.37231221020974   -2.07755827456128   -6.26350053395818
H         0.38063475436951   -2.45776270561973   -6.49964048088434
H         1.30427650566690   -1.05780548536747   -5.87672507837070
H         1.85251049558364   -2.70599238491254   -5.50883486355680
C         5.14488257622022   -3.72705679765594   -1.63429579160676
C         4.67083194901902   -3.03092824565268   -0.52849089571307
H         4.60738405123164   -1.95091346237841   -0.56749844035220
C         4.27940152687649   -3.70983012374391    0.60959240358788
H         3.91021880086169   -3.15876751567557    1.46280067315068
C         4.35338426619659   -5.09709441921773    0.67278131164238
C         4.83407905908485   -5.78767261154237   -0.43370436699833
H         4.90080625997658   -6.86632664548078   -0.40136358323130
C         5.23109105957043   -5.11505080840302   -1.57302554311671
H         5.60412696708332   -5.66935533137971   -2.42282894434412
C         3.92333913631705   -5.81899023009331    1.91247181494203
H         4.04282917839066   -6.89368070552530    1.80131399425284
H         2.87808233209481   -5.60473092613700    2.13173611745218
H         4.51451923339430   -5.48881120422656    2.76566187778818
C         7.46882980746568   -3.30542849668942   -3.02857654650054
C         8.33551006098487   -2.45950908433447   -2.34151506642490
H         7.95405326372516   -1.53305771010562   -1.93051827591536
C         9.66647146026646   -2.79032334384375   -2.18913780702219
H        10.32907765603383   -2.12347478564734   -1.65614268494646
C        10.16978898976130   -3.97451979025582   -2.71927546213830
C         9.30090405212279   -4.81743089778109   -3.39927116026030
H         9.67348320450455   -5.74273768862491   -3.81679997064667
C         7.96449270274469   -4.49456181526844   -3.55103918949384
H         7.31257916980748   -5.16823058821157   -4.08965694632361
C        11.61873605464399   -4.31684808215139   -2.55722748244224
H        11.84058812216685   -5.29277100764617   -2.98158276624688
H        11.89110428233869   -4.32354281483929   -1.50278608170164
H        12.23927067572170   -3.57215949609683   -3.05454116333256
C         5.06475056823166   -3.81189708886240   -4.46522438950713
C         5.72404565229772   -3.80141876315941   -5.69183686993876
H         6.67824662017493   -3.29671933432339   -5.77514719020662
C         5.16375142428074   -4.41806979095391   -6.79309317247715
H         5.69517419337782   -4.41745548301199   -7.73501702291270
C         3.92076873961468   -5.03452394075794   -6.70994873057536
C         3.25474852812960   -5.02168460366801   -5.48902636884366
H         2.28297501188765   -5.49014797990171   -5.41176576133422
C         3.81330559644610   -4.41424737814125   -4.38036267523962
H         3.27573828603342   -4.39949600902076   -3.44114637954794
C         3.28492810296375   -5.66528416345965   -7.91112809911631
H         4.00919369947957   -5.80334643445344   -8.71047525454398
H         2.47943937991947   -5.02993931949512   -8.28083588425326
H         2.85472794767314   -6.63212734533897   -7.65690449184840

