39
CSD_code = UDOFEA | q = 0 | S = 0 | Stoichiometry = C13H18NO5PW | MND = 6
W         5.66033825389576    9.38409541940590   24.05270179213424
P         5.12704377498313    8.48410244082770   26.27414500775156
O         1.16528485458838    7.43629383110943   21.64926451481070
N         0.31029572195527    9.35184066627500   22.52573579999765
O         4.80885425166759   12.25806440192190   24.97632261544423
C         5.11239522620715   11.20574804840917   24.62987632597349
O         6.35582998244832   10.45852605741965   21.19908683522471
C         6.10129238937457   10.07147810478868   22.25094886167552
O         6.47161118922967    6.48268311601356   23.17754915649892
C         6.17212881766036    7.54639926584094   23.49397529673272
O         8.58401249804169    9.97068365290063   25.02527874772260
C         7.51324580464367    9.74903259210832   24.67322354157412
C         3.72344671378907    9.01287076059266   23.39468546823122
C         2.58773738771750    8.82429801601675   22.94948091247582
C         1.37180362913993    8.54609047661069   22.38429816680850
C         0.40935198839558   10.58521540107745   23.26376594718501
H         1.42269310376970   10.70016519394835   23.64476311624786
H        -0.29501865160397   10.57986039466105   24.09906655149843
H         0.17340579912253   11.43090647563204   22.61397673103327
C        -0.96619779972440    9.07481143892833   21.91908563974495
H        -0.93224975952924    8.11760746301776   21.40681541642833
H        -1.21786968944715    9.85870087316570   21.20001112060716
H        -1.74302103969461    9.04599056632046   22.68716675217231
C         2.28606244771649    6.59019722038309   21.47032987935587
H         1.94719525385738    5.77807303284746   20.83099527887362
H         2.63485316970311    6.19756397972773   22.42872429634177
H         3.11026399818213    7.12906306017638   20.99679118090949
C         6.45462556734550    7.54507603635596   27.12183148903718
H         6.11880086170263    7.16822253354586   28.08857923210195
H         7.31386973496927    8.19982029177937   27.26283276532159
H         6.75617847194484    6.71188975744901   26.48761392076016
C         4.65223090242927    9.65551029870306   27.60359586236047
H         4.45760400972380    9.13407785845025   28.54140893778930
H         3.76074151611332   10.19916164520361   27.29248994105180
H         5.46177277857014   10.37127493381337   27.74320744976935
C         3.75032039880512    7.27524822565529   26.38916022109641
H         3.60472039428161    6.93350856856622   27.41433144261995
H         3.98118887376335    6.42594059365409   25.74710228182980
H         2.84065717423714    7.74900730686470   26.02228150271356

