78
CSD_code = UDOGID | q = 0 | S = 0 | Stoichiometry = C26H46B2ClN2Sc | MND = 13
Sc        2.42351360959226    3.24340143819223   16.01140619806588
Cl        0.55966383195427    4.60950554456600   15.96509658809534
N         1.43647302344981    4.14178297823231   19.31325529511734
B         2.53462234871317    3.87338466573511   18.43600101473080
C         3.28339435312682    4.97523266940245   17.63785532732077
H         2.97318731818038    6.01815912974920   17.63785319599252
C         4.46387693352629    4.71248617902105   16.96264447797576
C         5.05550396969129    3.42815204303156   17.00990720553780
H         6.06220388208336    3.30917424627100   16.62862992651837
C         4.42119759070352    2.34698057570159   17.62275133556422
C         3.12820637370350    2.46762883436844   18.16201921890490
H         2.79763385796678    1.56683514594222   18.67905141527652
C         5.25141833766190    5.82540049462920   16.31012659453248
H         4.61173481575140    6.67334281638751   16.07373145648340
H         5.74086082035228    5.48636677612696   15.39753159537577
H         6.02887492579561    6.16873519066590   16.99459269102257
C         5.18941351908832    1.06739972243300   17.84128542129691
H         5.48709087451762    1.01393924962121   18.88989304848728
H         6.09165690214615    1.03248161779644   17.23662430957511
H         4.58211580192468    0.19037230500822   17.62573136819448
C         0.47781916278489    3.13718565841240   19.75681406350316
H        -0.34481830950716    3.67030884741283   20.24285976755019
C         1.04871022300956    2.17453999218002   20.80789857726383
H         1.77239086951278    1.48870979443996   20.38208687377064
H         0.24114936512059    1.59095961281614   21.24559385303219
H         1.53900973832222    2.73444819936555   21.59925160302385
C        -0.14073557038404    2.38289128262539   18.57327641565531
H        -0.63008105813578    3.09249135148538   17.90791204296626
H        -0.88285686866727    1.67242528725013   18.93254222031439
H         0.61781636308515    1.83951477711233   18.00086476482286
C         1.14582283053438    5.50002578525182   19.75370588260237
H         1.96489216420988    6.12304926559837   19.39094136956926
C         1.15220023586068    5.62292979114966   21.28302410153149
H         0.32415566347432    5.08594439691948   21.73857556455400
H         1.06785791999945    6.67068172030508   21.56115382968336
H         2.08548129695895    5.23348759044648   21.68330792222320
C        -0.15457254657250    6.05272796557196   19.16013685192868
H        -0.16324969911727    5.88887503197728   18.08581925326489
H        -0.22115226344052    7.12063391585871   19.35321275312223
H        -1.03175295585877    5.57685015906365   19.59196345329963
N         1.44491407752778    3.88082501353623   12.64247430230969
B         1.95660416248726    2.91126249579096   13.56329736569331
C         1.05786311802437    1.90804859484825   14.33385181143433
H        -0.02794349449759    1.91931250444047   14.26986141402227
C         1.59276859488174    0.87478739468389   15.08427222070267
C         2.99130617650598    0.65849592795414   15.12732137608541
H         3.35798940262662   -0.26235579767789   15.56445495529202
C         3.89150519016378    1.53790019744598   14.52282320142453
C         3.45422011444277    2.72883525722136   13.91640406388180
H         4.25652085089588    3.27241896078433   13.41773897301663
C         0.69987586306262   -0.16140550826743   15.72762333722850
H        -0.29240162173900    0.24125920880850   15.92118364207844
H         1.12197112324665   -0.52657912644123   16.66344828833041
H         0.59309905432832   -1.01536958104663   15.05659511873953
C         5.33867114830842    1.13469577076916   14.38700123416797
H         5.52002955063711    0.83032157938313   13.35478050478418
H         5.58291187932328    0.29371493368544   15.03033299438918
H         6.01086966270206    1.96081677928678   14.61030768536052
C         2.16001773028935    5.08514099092661   12.23913732325039
H         1.44387391375176    5.72282982051267   11.71217270043017
C         3.30455789839934    4.81283135506891   11.25259684785039
H         4.14676956852430    4.32544478869286   11.73089809366483
H         3.65108460166592    5.75238918491641   10.82665859048558
H         2.95770872532381    4.17420427546493   10.44523370015452
C         2.64041081097018    5.89063666064271   13.45273172731663
H         1.78538151304482    6.15631320113541   14.07286238512970
H         3.12935307455515    6.80513022000097   13.12209003459623
H         3.34564976146460    5.31543635636498   14.06210630815705
C         0.08767527145481    3.77256265771934   12.12374684885720
H        -0.29381142702361    2.80729117486448   12.46084952299988
C        -0.84575024859912    4.85800542596654   12.67079900692548
H        -0.75005384448262    4.90983297261398   13.75219256635728
H        -1.87598837642426    4.61710037156774   12.42041871265695
H        -0.61741402496731    5.83612068224744   12.25412667640702
C         0.05797707681515    3.73817507497842   10.59013049131297
H         0.35633548055404    4.68842514557347   10.15475021083889
H        -0.95197005687543    3.51606571186048   10.25403012493329
H         0.72288804753899    2.95983727554971   10.22276679102645

