49
CSD_code = UDOJEE | q = 0 | S = 0 | Stoichiometry = C25H19CrO2PS | MND = 9
Cr        1.86865658754257   10.25991451157263    3.31316103301462
C         3.53784748108817   11.71272852683685    3.32464993146812
H         3.82275118805047   12.38820398414936    2.53017427514010
C         2.68353003433369   12.02000003510975    4.40860296432060
H         2.23483014030130   12.98332639067124    4.61083351398591
C         2.72528282335450   10.93966003476787    5.31242999665013
H         2.24985937730495   10.90876906533776    6.28234630435045
C         3.56078505649910    9.94707629593275    4.77609760381978
H         3.86354912985614    9.03855820824062    5.27471257934283
C         4.07500012403172   10.42891532819450    3.54863754744707
H         4.83988603354662    9.95045334827779    2.95337789405403
C         1.91000066895159    9.60542276467898    1.61959155296173
O         1.94032634610471    9.23724412456300    0.51041296924622
C         1.56853304290247    8.49594178757159    2.95733396789843
O         1.41628098268181    7.35588722134608    2.78189757035799
P         0.33517598653966   11.64442325829385    2.28050053185973
C        -0.95773324528310   10.95861644489886    1.19976866252970
C        -1.30637861428226    9.61666832075925    1.30571840940176
H        -0.77050536927083    8.97409535750292    1.99384505101528
C        -2.33757730530703    9.11004582483173    0.53414884707721
H        -2.60176058338672    8.06644003979936    0.61393003932676
C        -3.02700440575777    9.93782041993878   -0.33621329651562
H        -3.82863172928382    9.53912569669162   -0.93993491706348
C        -2.69291472893575   11.27974917132032   -0.43046359159724
H        -3.23538071748935   11.92698713751729   -1.10398219287087
C        -1.66613982320907   11.79365916255718    0.33840824141536
H        -1.40358027774964   12.84062263907939    0.26738299144882
S        -0.17891202927562   10.05278322601694    4.69252041934899
C         1.08845096953824   12.94133398203723    1.26773637072672
C         1.43321255146483   12.63478652829925   -0.04782418465905
H         1.16038904185929   11.67149295684607   -0.45657455544563
C         2.11778276362772   13.55650460269308   -0.81697598783784
H         2.37882137782119   13.31744482398859   -1.83713873410316
C         2.47401888866702   14.78395057360857   -0.27906921250304
H         3.00808527166005   15.50348843779282   -0.88165288083408
C         2.15263806448754   15.08496156933906    1.03440595953258
H         2.43875912033746   16.03726042317980    1.45689320871972
C         1.47028416056174   14.16500721580562    1.81045563928675
H         1.22935535247797   14.39761808752807    2.83857046606611
C        -0.70480804288675   12.45249374420808    3.52125189563712
C        -1.32859185539058   13.68826601697737    3.42341380102229
H        -1.18433235387952   14.30093904448223    2.54431311207349
C        -2.13843383934638   14.12715140371892    4.45630198842306
H        -2.61966645556465   15.09129534354036    4.39070060309983
C        -2.33811579348826   13.32220815642647    5.57063552286276
H        -2.97284601643285   13.66882450237880    6.37294653970457
C        -1.74123519630039   12.08068006333687    5.66484184210928
H        -1.90711505229145   11.44660678575253    6.52184858263143
C        -0.91322913078012   11.62974741160037    4.63853112405196

