89
CSD_code = UDOKII | q = 0 | S = 0 | Stoichiometry = C36H46N2O2Si2W | MND = 10
W         2.72886537621516    1.96688314867081    4.06105028708901
H         2.07214771898639    1.13952164131702    2.77633873683962
Si        2.15522629532118    3.74333860049971    2.37370530246343
Si        0.22686651052645    1.79838569537785    4.59728768957782
O         0.09929365638349    4.63013070683707    3.49631601836311
O         3.37746853689789   -1.07339610074068    4.28819607431962
N         3.83149074253487    3.30174081316289    1.70936707922085
N         7.10643968477736    1.11491380598630    0.48729311982284
C         4.11126854971024    2.15344500714134    2.36475156527624
C         5.19569444661407    1.40997564715923    1.93716156783341
H         5.38100490658698    0.46815537213601    2.42582628957849
C         6.02751930161110    1.83579343583618    0.88721509064864
C         5.69020101991252    3.06541975066378    0.27359939824474
H         6.26677100591763    3.46592248660613   -0.54219169137701
C         4.58276506916113    3.74216342419027    0.70477242223449
H         4.27278297395027    4.66790387894804    0.24106877068096
C         7.34973456873557   -0.19423496394923    1.04717586673990
H         7.54139311862113   -0.12714003349021    2.12124793038890
H         8.22333035241393   -0.63520431675491    0.57411458933319
H         6.49690095686257   -0.86021797701210    0.88724414688042
C         7.90898711287542    1.55085304176709   -0.63046235817327
H         7.33275474018733    1.56161200628727   -1.56164058016134
H         8.75137139814365    0.87558722445549   -0.75756644410072
H         8.30569753044371    2.55330992362986   -0.45252356439214
C         1.18784061375532    3.53526637956010    0.70948359641675
H         1.61574100940377    4.14595215675789   -0.08253501076945
H         0.15691048714857    3.84189470018082    0.83958723542134
H         1.19032396174748    2.50081177029533    0.38048239274937
C         1.98169847220657    5.62356726581335    2.60193649071767
C         2.74443582978431    6.74963240770477    2.34967662522161
H         3.69904682783026    6.66018356269091    1.84929517314549
C         2.29326038358141    7.99515044976100    2.76176054707033
H         2.89225553494014    8.87385111565906    2.56824493826797
C         1.08476582525692    8.13280863838392    3.42527161076467
H         0.77095156997012    9.11683838363911    3.73607675792662
C         0.28775304599828    7.02454953254183    3.68626796151376
C         0.76641593818797    5.79743800089367    3.25555898193976
C        -1.07351416062602    7.03248127247082    4.35465608022870
C        -1.29938549021721    8.29422763597770    5.18702058722104
H        -0.57029676850476    8.36288398223199    5.99193645337759
H        -2.29915081603518    8.29585090319974    5.61299012170272
H        -1.21562439478059    9.17722651271523    4.55839932891579
C        -2.14099991636963    6.96605419533578    3.24402348800683
H        -2.07058664176450    7.84235927717481    2.60196512533528
H        -3.13560492939682    6.92832398156329    3.68405337474511
H        -2.00118499773968    6.07705579704858    2.63271239072689
C        -0.61342960567893    4.58510291471688    4.67559801131628
C        -1.18528787633094    5.75560941752935    5.17777070864864
C        -1.87682812549680    5.67145454985492    6.37800569059322
H        -2.33475890694798    6.54726519895716    6.80901813712558
C        -1.99836888295345    4.45751492402511    7.03073712728302
H        -2.55223341576718    4.40492349562239    7.95741233376689
C        -1.41412983017722    3.31904698686688    6.50546511692197
H        -1.51125097663295    2.38314222940290    7.03197432285408
C        -0.68711433976355    3.35096662449685    5.32186230775260
C        -0.29123854808449    0.34044391589032    5.77097329549895
H        -1.37023433752452    0.22226131600101    5.80392471882549
H         0.05627625249256    0.45807574327836    6.79253255236706
H         0.12562892331087   -0.58853753586866    5.39391559656026
C        -0.95215600354056    1.47362101775274    3.09534375360883
H        -0.64191339470173    0.59561345146041    2.53851635486799
H        -0.94843134726885    2.31427212486743    2.41213531190508
H        -1.97587309841313    1.31761112270693    3.42416011377716
C         3.05995558951334    0.03859869358806    4.20479650483533
C         3.20234372743507    3.76594210437514    5.59232697974991
C         4.39778681952252    3.31426603244517    4.95070142027254
C         4.62737545263393    1.96044939669182    5.34843271428507
C         3.56266670440643    1.58086469799348    6.23576003725679
C         2.70637355789605    2.70651924561007    6.40455140212787
C         2.78683743024307    5.19610241469447    5.77191104778183
H         3.20767758117675    5.57645910758773    6.70690214314400
H         1.70381649008247    5.29052088135027    5.83735646053626
H         3.13755068041533    5.83003882368465    4.96140066460019
C         5.39115991263952    4.21784915237016    4.28025522548370
H         4.89102715844632    5.00381800012832    3.71529655459795
H         6.04000994986735    3.66968039153415    3.59799011945596
H         6.02262551777425    4.69481994845398    5.03473035925408
C         5.91487653608046    1.20640382086474    5.19676806498100
H         6.51482454886556    1.31232050355332    6.10446706083748
H         6.49754275782736    1.58956791817668    4.36168429703423
H         5.73841243926422    0.14366408508386    5.03601377287552
C         3.55850710178273    0.37925815484425    7.13480789093959
H         3.94680646127253    0.65497800270711    8.11871943408111
H         4.18189294703708   -0.41816250060258    6.73728612087609
H         2.55013648495857   -0.01045008443203    7.26441681141345
C         1.75609004673253    2.88823687891358    7.54788162796213
H         1.30434530136821    1.94646103443724    7.84532214572033
H         0.96156234577241    3.58952206706964    7.30861188478765
H         2.31021301269455    3.28161359098695    8.40505224345829

