138
CSD_code = UDOLOP | q = 0 | S = 0 | Stoichiometry = C50H80N4NiO3 | MND = 4
Ni        4.51681580393332    3.23357954350182   17.27481062356209
O         3.72614005324797    2.68382612894856   18.82280606145080
O         5.17431783838709    4.11067148260121   15.76297980603283
O         6.05357022839395    1.73349648932463   14.81422931402449
N         6.43077470429853    3.25155138087015   18.05410779423763
N         3.00056382707161    2.55825772046088   16.12507630234076
N         0.86003098481285    1.96854623366766   15.37043260542764
N         1.97227838330798    0.62003384303313   16.89120893369203
C         6.37948372890763    2.75977231281327   19.44941932332415
C         5.38185651004276    3.52991054033428   20.26400675705009
C         5.75134325733242    4.28020018998006   21.36273530171315
C         4.81130296747006    5.01762287005167   22.06604272313733
C         3.50454791972172    5.02652733664498   21.57688241035342
C         3.09551054146477    4.32076501913501   20.46254277815368
C         4.04528656018427    3.49192497931664   19.80308836363661
C         5.14877344392356    5.82970790758128   23.30661648818289
C         4.84859394294198    7.31239027384172   23.04325138402448
C         6.62216777863168    5.70752381569003   23.70579392736469
C         4.29532177102412    5.32931880873335   24.48071154606748
C         1.69416310529323    4.46201321887734   19.88295523791917
C         0.77623026404546    5.35144332532114   20.72818399169329
C         1.02938715308181    3.08580447901930   19.75458333981408
C         1.83517148843503    5.10937016327784   18.49466082696734
C         6.88409520707015    4.64970785705743   18.06237146566841
C         7.00778675483153    5.31059640849860   16.71039191345953
C         8.02330940289197    6.24012671788725   16.54180196437491
C         8.14522525793588    6.97804360021202   15.37991592199224
C         7.16660844203995    6.79270855429209   14.40572042656949
C         6.12889911397341    5.89073428007130   14.52625902789481
C         6.06945821153222    5.07616732077197   15.68832822213747
C         9.26553555635978    7.97725570719152   15.13546204004821
C        10.25642514816866    8.04590258507420   16.30097841461236
C         8.66516708220567    9.37628017909813   14.93781631352204
C        10.04152978159406    7.56476414431429   13.87650647790295
C         5.03917502566906    5.78002962412445   13.46387789065534
C         5.22752022660303    6.77143707543526   12.31012812476333
C         5.02062634749131    4.36911692206531   12.86056090958864
C         3.68647365974962    6.09008572440323   14.12373122872817
C         7.39823132923065    2.44182355779524   17.27949439300578
C         6.91383376927192    1.05033811302670   16.95259981983629
C         7.16697459588993    0.02279886749342   17.84852151422757
C         6.79233241665265   -1.28598916827818   17.59046268880544
C         6.20500485834154   -1.54946144065705   16.36081644101108
C         5.96041501005007   -0.56719279351646   15.41289798629130
C         6.29096934803046    0.76402656466435   15.72818804914227
C         7.04934849605642   -2.35993827344493   18.63690563312336
C         6.32454823201474   -1.97072372516362   19.93369909663439
C         6.54385704117122   -3.73993683010798   18.20744246803782
C         8.55872805747292   -2.46511180109387   18.89605911489189
C         5.35619994220385   -0.90980556478457   14.05484921044408
C         5.08447374492610   -2.40846030057974   13.88291060971442
C         6.33609932666230   -0.48560283845507   12.95229530500125
C         4.02072153786159   -0.17343869759477   13.88165419529853
C         1.99190760118209    1.74474726775894   16.14039011916120
C         0.64106214178868    3.29527178303224   14.83790446327146
C         0.36124309714191    0.91967834308145   14.50461366197166
C         0.74509364148840    0.06528405546879   17.41286565375543
C         3.16561021967585    0.11757119451859   17.52810180444024
H         6.78900913593992    4.27204645907580   21.65934658186777
H         2.78111161660212    5.63468969492693   22.09327323786467
H         6.07168318612971    1.71032121823551   19.41009102777258
H         7.37975533742721    2.83321668026408   19.90372498858555
H         8.71970502409951    6.37274749682389   17.35543436937376
H         7.22843916490682    7.38950268592738   13.51226145091854
H         7.69304134019647    0.25899435440873   18.76153116888165
H         5.93541346925697   -2.56233434165038   16.12802088724050
H         5.43109979059729    7.66898146675489   22.19599767816473
H         5.10612884453639    7.90950692285288   23.91594174347451
H         3.79652188426890    7.47002556175302   22.82237864378688
H         6.88495749236719    4.67294373771513   23.91473314496824
H         7.27262265146589    6.09006630591243   22.92242052381665
H         6.80461250385412    6.29011838998889   24.60685772222075
H         4.49244542661789    4.27502095717870   24.66424419013094
H         4.53187500347447    5.88847480444377   25.38400188493738
H         3.23470879988928    5.44571454125965   24.27590097068101
H         0.64821951144410    4.94295559635368   21.72835472333426
H         1.16222845374684    6.36571017164261   20.80254788831876
H        -0.20436705848503    5.40220442571617   20.25777842824474
H         0.03325234086728    3.18593191897796   19.32603863039700
H         1.63009768789468    2.44894218757550   19.11473682994883
H         0.94166933834707    2.62055177365117   20.73485856174703
H         2.52021158569276    4.53096350129426   17.86451726967581
H         0.86657904713531    5.16074256539160   17.99931926010762
H         2.23070766093019    6.11941498999672   18.59033844093317
H         6.16601477002757    5.22030730730853   18.67037799737150
H         7.86066505583063    4.70675830935434   18.56944847289194
H         9.76413165955997    8.37503360960884   17.21332656167972
H        10.72025267015955    7.07763250452698   16.47539389948635
H        11.04434721338190    8.75990930203919   16.06793576318045
H         9.45584420062315   10.10853761913469   14.78489251933486
H         8.00463104993106    9.40379086807039   14.07562584974946
H         8.09063408199454    9.66487619137242   15.81573439842750
H         9.39684541568804    7.55222054821527   13.00213979802182
H        10.85652132553455    8.26159810337252   13.68954551730902
H        10.46007155815381    6.56844350776110   14.00397961738100
H         5.23508547651123    7.79892702173623   12.66730399168472
H         6.14836990608239    6.57285590843069   11.76632089785469
H         4.39844425740774    6.66714071866227   11.61194330528863
H         5.99660263837122    4.12499242576810   12.44682971132674
H         4.77558637839272    3.62997726151654   13.61450918194658
H         4.28331387948696    4.31317222471798   12.06081350595807
H         3.52338825201921    5.44449318024286   14.98150905765051
H         3.66662010919897    7.12291555140263   14.46662979855913
H         2.87394515614839    5.94550013172529   13.41311555249054
H         7.62966836388623    2.98191348447260   16.35649272468833
H         8.33234158691006    2.36705127433683   17.85837923713120
H         5.25845797166592   -1.85699053076692   19.74768912265654
H         6.46519203849420   -2.74058470961180   20.68973392791741
H         6.70036474015991   -1.03252456150256   20.33207856038040
H         6.73731153936444   -4.45990716027753   19.00033197289099
H         5.47218397360978   -3.72331670789780   18.02285461099952
H         7.05593417061749   -4.08348485223553   17.31183982313910
H         8.76165161612585   -3.24045998769594   19.63205450797063
H         9.08041408555927   -2.71671709903118   17.97505167142211
H         8.96211238533063   -1.52816194875834   19.26969746641291
H         4.66388321476239   -2.58127747043434   12.89397567601633
H         6.00132872938213   -2.98812154388519   13.96011460681226
H         4.36780932703511   -2.77073475677280   14.61702795743231
H         7.28939037822247   -0.99384293342555   13.08329432937437
H         5.93597127552929   -0.74609091458448   11.97445211874498
H         6.50536737529134    0.58481590395278   12.98394854407341
H         4.16032292096167    0.89732535929402   13.97794598458525
H         3.60571516215527   -0.38470518629438   12.89792349640422
H         3.31279354319262   -0.50369938763632   14.63817703759676
H         1.21526386510205    3.48959094308994   13.92286648747136
H        -0.41881252021771    3.39257520377748   14.59974387661756
H         0.89714787731476    4.03900811168401   15.58988523679899
H         0.69565740658646    1.08459706949991   13.47394855788901
H        -0.73095767419491    0.91257857958435   14.51566677826715
H         0.72800394331170   -0.04852283154277   14.82802941099046
H         0.78419355765897    0.06621340268401   18.50569952167174
H         0.60957003507002   -0.96766441545056   17.07888030699022
H        -0.10653383057203    0.66111577000964   17.09784696044937
H         3.20384294866853   -0.96737933515488   17.40598503262261
H         3.18180300487072    0.36288208992790   18.59141775831011
H         4.04252593352930    0.56596607136587   17.06391932572378
H         2.94460105882208    3.22725077710392   15.35943277710840
H         5.87381382088099    2.60597285405306   15.23724053729315

