107
CSD_code = UDOLIJ | q = 0 | S = 0 | Stoichiometry = C40H58N2NiO6 | MND = 6
Ni        0.69929972159533    3.83642046963121   17.35770428197219
O         2.68256524885892    4.09741334098559   16.12214018761231
O        -1.49902221205710    3.62568914022719   18.23877458194445
O         1.32319832766229    2.15322902271508   18.00809160539235
O        -0.38714313578291    1.50234865037424   19.28035786951873
O        -0.09076445131858    2.87984997970657   15.89288762584001
O         1.51153499578722    2.63716545791034   14.36673245926441
N         0.18829993482773    5.66609930093689   16.58412586603943
N         1.12245550465810    4.80940548416804   18.95609213929013
C         0.72620614840301    6.67651102021245   17.50332114062608
C         0.82537708421384    6.11372734996932   18.88397860111275
C         0.70244907602808    6.90457961957047   20.01842811279604
C         0.91526152018315    6.34036747641025   21.26243484276656
C         1.27385604887070    5.00350979784863   21.32673543098222
C         1.35804867462148    4.27765126618369   20.15179373617122
C         0.68123959886176    5.90425169408637   15.20557290149988
C         2.15812944842096    6.20526189679300   15.13486411383239
C         2.57935105488941    7.42120678854785   14.62129908352622
C         3.92177987381000    7.77112011034462   14.59310524009320
C         4.83017066190819    6.87584156897863   15.14253345495040
C         4.45703755836397    5.64669142235519   15.66976581895117
C         3.10018121014960    5.29339834273545   15.62844766802572
C         4.33374807691974    9.10978184774206   13.99804133226801
C         3.66118324803635   10.24055243064170   14.79015353537001
C         5.84712511810867    9.33715316442545   14.03816820240903
C         3.88351796234545    9.16382770520122   12.53160689307174
C         5.46770708713253    4.69756926642628   16.30032215320380
C         6.89227700665925    5.26257003469428   16.29478758259475
C         5.48079914756696    3.37372723346195   15.52404505815584
C         5.06413068677791    4.44444369267981   17.76108910917384
C        -1.29272543028193    5.74518761595812   16.57994937086152
C        -1.90941177172119    5.87919220816544   17.95010970940902
C        -2.38436312318364    7.10392735599024   18.37845351302480
C        -2.96650291629248    7.25119570308586   19.62941779683899
C        -3.11145094330834    6.10801606882762   20.40117265958699
C        -2.69976378250078    4.84101090852899   19.99911480816153
C        -2.03664913418109    4.74162166763032   18.76693884215871
C        -3.44976222401038    8.62275520614696   20.07860634967662
C        -2.26975467589153    9.60522134917615   20.07415852951762
C        -4.04666375738079    8.61186766040134   21.48834194998272
C        -4.53274010204718    9.11101319041663   19.10600858874211
C        -2.98840780165311    3.62490528282272   20.88131890207762
C        -4.06518752489119    3.93546441769894   21.93294790774981
C        -3.50494071277324    2.44584938528138   20.03271797604605
C        -1.71265934227452    3.22060209294219   21.63387669375378
C         0.68509910867898    1.30794942685962   18.69618378072384
C         1.36476339961427   -0.05423013855500   18.81626957774456
C         0.38918383157459    2.39398695231515   14.83421970228500
C        -0.54202484202865    1.45988136736526   14.06738837982692
H         0.44184809665877    7.94555644835291   19.91492003957716
H         0.81646667650381    6.93206917667540   22.15985060536845
H         1.47794367635673    4.52295959799997   22.26969004605889
H         1.63331093651902    3.23357698175699   20.17102485446257
H         1.83246799391106    8.10225942597977   14.23876331277022
H         1.74569961744492    6.92639035817696   17.18279566532336
H         0.12978162544477    7.59677463374429   17.48479014672832
H        -2.29869160255257    7.95335878104063   17.71531124554373
H        -3.58498923384706    6.20485777405843   21.35920124760350
H         0.43942861548284    5.02552677088572   14.60327601888750
H         0.14006665182925    6.76218936662381   14.77738993981775
H         5.87023619470083    7.14302738441711   15.15693474614438
H         2.57810693205610   10.17402136434132   14.73391066385078
H         3.95304673015949   10.19086990544614   15.83740779038754
H         3.96257279977897   11.20775721425819   14.39348208560514
H         6.37211265157437    8.56726029309129   13.47810011241223
H         6.08072459728768   10.29933651971658   13.58645445707592
H         6.21556359003827    9.34961666992706   15.06132149044213
H         4.18057392746725   10.10874945285521   12.08121521516912
H         4.34209870819742    8.35316524253210   11.96985520158264
H         2.80485918083828    9.06918957267464   12.44380658987189
H         6.95119769012692    6.19765629886901   16.84819892674409
H         7.55980177014159    4.54944978384632   16.77443330433488
H         7.24999044199308    5.42203728743885   15.28001081714679
H         4.52734923796074    2.86431166889197   15.61038729612630
H         5.68589055670306    3.55647565186522   14.47114064091825
H         6.25647164226671    2.72101598340778   15.91927852601531
H         5.04045032247114    5.38299101491888   18.31402348424607
H         4.08340040421118    3.98069774979869   17.81541035404084
H         5.78569123854832    3.78271465332607   18.23544427376196
H        -1.59588516641335    6.62017693423529   15.98434382356936
H        -1.66958885370498    4.84073155085854   16.09529250199445
H        -1.82014668755040    9.68288944787681   19.08780189449324
H        -2.60583439276572   10.59661229012411   20.37083529228377
H        -1.50710944644969    9.27703336999979   20.77783968829960
H        -4.35237023932250    9.62046514235217   21.75967869037734
H        -4.92440255105612    7.97228679313425   21.53686057300484
H        -3.31679760684551    8.27383513924168   22.22056451463523
H        -4.91688775676338   10.07805534193166   19.42396063562730
H        -4.14213027724597    9.21503597376854   18.09758132888623
H        -5.35775878820213    8.40271736671313   19.07918747489583
H        -4.96996515126947    4.31599780236221   21.46417667766311
H        -4.31710893925299    3.02116471519704   22.46622232456037
H        -3.71483257608656    4.65124789418559   22.67306179689743
H        -4.07925820286034    2.80482772059161   19.18152685801095
H        -2.69690198476865    1.81526384812118   19.67566655453399
H        -4.15688010612469    1.81519166897186   20.63323942472610
H        -1.94093366018282    2.42477177360736   22.33949551349672
H        -0.94795215373983    2.85323797336070   20.95704901743279
H        -1.31499099671244    4.07131025397795   22.18586958686062
H         0.89825456436398   -0.72462665321276   18.09791009176924
H         2.42197540248032    0.03418848568652   18.58666828580314
H         1.21410307422991   -0.45463370682981   19.81508329110353
H        -0.17438765031463    0.44357250307967   14.18839364635492
H        -0.52078628144826    1.70985977654594   13.00996974668117
H        -1.55104782440930    1.52936414310229   14.46178198654921
H         2.28012190197262    3.51936282798058   15.37547311397643
H        -1.35660780182054    2.85261429923247   18.84364090080734

