49
CSD_code = UDOMEG | q = 1 | S = 0 | Stoichiometry = C18H22N7OZn(1+) | MND = 5
Zn       16.22463095021518    3.51028356215173    5.23974969764383
O        17.31951015750299    3.18403059575610    6.74227109459995
N        14.86115951658646    4.01843497193996    3.64783315080879
N        14.35336765865541    3.55120871457207    6.22427511178515
N        16.35497045341736    1.80277787311842    4.12337049119841
N        17.30071321488557    5.05892752473331    4.28306617645640
N        14.98613295536921    2.16911498197324    7.94391548562454
N        18.23665701830933    1.01804727067927    5.18220985857153
N        19.03592353495108    5.09810070328907    5.78720070959308
C        13.83547794337823    4.84778861349996    4.26253976679515
C        13.40877836627779    4.24424281346355    5.57397676204106
C        12.12929605064073    4.39256054415387    6.05974516624397
C        11.80407307170488    3.79035046423583    7.27753843328567
C        12.75217308532021    3.05044306034480    7.93319331068170
C        14.04300242023344    2.93143135371163    7.37490991729283
C        14.34061071375287    2.74249111216552    3.17585214472252
C        15.43211451483903    1.70300151378520    3.15552241753372
C        15.44645235295271    0.69299368190082    2.22073985331571
C        16.45983967932446   -0.26666652346824    2.28839156308399
C        17.40179583457509   -0.17790267089001    3.27821421201578
C        17.33144706397814    0.88374201667423    4.20651767054127
C        15.59106679802792    4.72521810075121    2.60841252173926
C        16.70855911218402    5.55266228412756    3.18564122040348
C        17.13364418068666    6.70189249379183    2.55945277000584
C        18.24321676796256    7.37530223927423    3.07643543933077
C        18.88855978085541    6.85479139793654    4.16493496412036
C        18.40361463850139    5.66758271195046    4.75779929709863
H        14.82731952787754    1.76685111675610    8.84986206035859
H        15.93073666216612    2.22034468947138    7.56720069099725
H        18.10845181013166    1.73709945579436    5.88476971153789
H        18.94487095009142    0.31860116481584    5.31125797543383
H        18.61630461850874    4.26636465071421    6.20980986554100
H        19.83518957331304    5.54286451919042    6.19955189871807
H        14.26722476186960    5.83575970304811    4.45342254480813
H        12.96394865696898    4.97615790431392    3.60563102108868
H        11.39786156907472    4.96151139520995    5.51053417072112
H        10.81194132456296    3.89848867124642    7.68641254158525
H        12.53488960327978    2.55299536111252    8.86437060338429
H        13.57144535207062    2.40214436916677    3.87594826245804
H        13.87920686171635    2.83118985746652    2.18386693586165
H        14.68902734503117    0.64281062724427    1.45630311474966
H        16.49484606694469   -1.06728320670488    1.56654386687927
H        18.19726407429763   -0.89999999935325    3.36486915451054
H        16.05513473547326    3.98186350011321    1.95148532550000
H        14.92764899966114    5.35014421010443    1.99664663234838
H        16.62377970511782    7.06790924973639    1.68399928762683
H        18.58993741958795    8.28511472377509    2.61253718132321
H        19.76290304129272    7.32734869888451    4.58217133597902
H        17.24917950587336    3.72676793227177    7.52859661205692

