69
CSD_code = UDONUW | q = 0 | S = 0 | Stoichiometry = C24H36N6P2Pd | MND = 4
Pd       -2.38734549772287   -3.20265656786134   -2.43147847666557
P        -0.37363266063497   -2.32671334347771   -1.82498104120408
P        -4.43087432937352   -4.18323301738234   -2.17902254466713
N        -3.12633587566480   -0.44717799196464   -3.37618462846822
N        -4.06101316708991    0.48643294623341   -3.09892738181078
N        -4.74621799550196    0.05728598673442   -2.13021441776568
N        -4.31048033862754   -1.13806961058129   -1.71826960853114
N        -1.57106954207538   -5.07505453904326   -2.39236646129147
N         0.57061468833276   -6.05581792638211   -2.86057896376745
C        -3.29722029137045   -1.47038975122562   -2.48769754377847
C        -2.10314501524851   -0.30073643541082   -4.32966455179666
C        -1.35952289791215    0.88635731973618   -4.35527825617162
C        -0.28460484385768    0.97291501386519   -5.22891278013533
H         0.30279278965722    1.87899956453673   -5.25009977462211
C         0.04038812907819   -0.07850813147971   -6.06606162503874
H         0.88797917422393    0.00085545957307   -6.72992585740334
C        -0.73905920351725   -1.21961341108170   -6.07264798542532
H        -0.50940365851561   -2.02369869207651   -6.75582445903850
C        -1.82689735420693   -1.34935941802052   -5.21795976649023
C        -1.71731398395382    2.05475969691015   -3.48919006648150
H        -1.96618347419394    1.75028513726308   -2.47458921331710
H        -2.59731845854628    2.55259566533247   -3.89453164838748
H        -0.89792634693612    2.76880980289112   -3.45343483568236
C        -2.70330497841887   -2.56704958748141   -5.31612052392438
H        -2.57098050127299   -3.03946941981690   -6.28707153741965
H        -3.75584066799251   -2.29394505532550   -5.19979127303305
H        -2.44026138159015   -3.31412324215438   -4.52597513530728
C        -0.52026178903636   -5.48592573329874   -2.76187526772221
C         1.40494732519022   -6.32275243934500   -3.90545553378628
C         1.16582830276546   -5.88408412562115   -5.22112447769870
C         2.09460147710164   -6.18139184927667   -6.20430334510560
H         1.91366347380013   -5.84633773657041   -7.21710702671999
C         3.24213144371692   -6.89776031431756   -5.91539855534545
H         3.95327490016616   -7.12112953509301   -6.69703034393377
C         3.47190903084734   -7.32831706790931   -4.61913895974371
H         4.36672751152659   -7.89074559164843   -4.39017917131367
C         2.57119658468042   -7.04995828804053   -3.60910467059770
C         2.80363315327317   -7.50575730716602   -2.20024516149986
H         2.86044605614456   -6.64772861085819   -1.53002737579157
H         3.72588866820871   -8.07662380062357   -2.12366424998302
H         1.97199911950121   -8.12422128138234   -1.86392337530763
C        -0.07733636718548   -5.11143530732944   -5.55429678315097
H        -0.12671870931329   -4.18262665722654   -4.97899781813491
H        -0.96780044255918   -5.69749589472180   -5.31792732412793
H        -0.09695225715972   -4.86451083793528   -6.61397462195269
C        -4.60640508884611   -4.15654775327288   -0.36199631212134
H        -3.71044248337568   -4.61073218423242    0.07011151400054
H        -5.49483250054711   -4.70062482934418   -0.04115321626529
H        -4.66900346456146   -3.11183421349098   -0.05245172115282
C        -4.57987337500640   -5.96265228900688   -2.57781483693633
H        -4.61168154275020   -6.09346835940800   -3.65880958749833
H        -5.48721112863204   -6.37136090145928   -2.13378886122041
H        -3.70455718023466   -6.48087091355576   -2.19076993713215
C        -6.04415436160117   -3.54657213458419   -2.76226751664535
H        -6.09386408918540   -3.59663187787641   -3.84939295310097
H        -6.16295023119205   -2.51460486229568   -2.44124750892879
H        -6.84078431070818   -4.15528787592773   -2.33617917206849
C        -0.24058921290881   -0.57374692468889   -1.30378410457214
H        -0.20834575096517    0.06822925510468   -2.18139208450855
H         0.67020528910462   -0.43080784957685   -0.72278573656293
H        -1.10373418201573   -0.30749062745748   -0.69406715896333
C         0.04742624078457   -3.18050370922925   -0.26249627172083
H         0.17516114308279   -4.24405081584447   -0.46359097962363
H        -0.78319898968758   -3.05122610565918    0.43618153454955
H         0.96199791629418   -2.77182368303732    0.16822201494300
C         1.15631227042716   -2.51187239286851   -2.81108617999762
H         1.33964727119295   -3.56578880921940   -3.01157290823566
H         1.99751073663232   -2.09993427383267   -2.25382088213134
H         1.05066722534967   -1.97917394231763   -3.75657271336203

