63
CSD_code = UDOPEI | q = 0 | S = 0 | Stoichiometry = C16H36N8P2Pd | MND = 4
Pd       -0.26771848690327    7.82828272253340    6.32980295087779
P         0.58258010006394    6.33450106963978    4.86803439974468
N         0.25542012972676   10.03623176108073    4.51893327782096
N         1.09312117327365   11.04433737552724    4.21706325464607
N         2.06176218873379   10.97341386167443    5.03016293420178
N         1.91149163133828    9.95274284595868    5.88206841429504
C         1.22216136633238    4.75797596034147    5.54445555513893
H         0.43080211509984    4.23551736055716    6.07952956713985
H         2.04829515598198    4.95961637032553    6.22638088858330
H         1.57500175955217    4.12920681119332    4.72681455448401
C        -0.69099422749078    5.74651789265293    3.69683168064998
H        -1.03541778519472    6.57182510651749    3.07504118357352
H        -1.53733063857969    5.37181341892007    4.27500056105056
H        -0.28898064657667    4.95469548319061    3.06492024321108
C         1.97662295586429    6.81939823076948    3.78374322822279
H         1.72116342636725    7.70972118023900    3.21196968490314
H         2.22892471766907    6.00763187609647    3.10178203782702
H         2.83738377855301    7.05780394849458    4.40846098005008
C         0.78245051696465    9.34969440930345    5.57164845677969
C        -0.99501571165936    9.79080886442508    3.85073170765296
H        -1.63190082325690   10.67799482418927    3.95157876719806
H        -1.48254510372656    8.93220994619471    4.36731452026831
C        -0.79531465257755    9.49007045315465    2.36545082006147
H        -0.29486972337729   10.34363948149658    1.90299598141958
H        -0.14192072387707    8.62057070460486    2.25362374481162
C        -2.12498156957238    9.22171174503204    1.66679502899241
H        -2.75724328514453   10.10886767958266    1.74258989999774
H        -2.64393417405677    8.40321118787578    2.17319695053622
C        -1.92543297076207    8.86690961400815    0.19881370742095
H        -2.88295566186073    8.68640261916693   -0.28324860875406
H        -1.31760079898343    7.96987091154490    0.09929988611302
H        -1.42467291672224    9.67835122679747   -0.32405921590468
P        -1.11788702266822    9.32215380713098    7.79141603237234
C        -1.75759748864741   10.89870403959534    7.11517036069457
H        -0.96623797827093   11.42115186079119    6.58009545692740
H        -2.58373536351137   10.69707681453399    6.43324246528959
H        -2.11042163991619   11.52747380638586    7.93282852152781
C         0.15554730213168    9.91013968560843    8.96276949483110
H         0.49996726496624    9.08481009324293    9.58454228226360
H         1.00188306179621   10.28485085606595    8.38460835483919
H        -0.24647090168712   10.70195618385541    9.59470010400315
C        -2.51194817834820    8.83734090880322    8.87574653596875
H        -2.25653104431831    7.94699631232612    9.44750526301275
H        -2.76426236055472    9.64907389007215    9.55775338381394
H        -3.37273275104380    8.59895324885543    8.25105642758782
C        -1.31796168772980    6.30696107837053    7.08798546879786
N        -0.79091763666268    5.62041900657079    8.14068837280739
N        -1.62861303820660    4.61231376153053    8.44255053619424
N        -2.59728690909028    4.68327274174645    7.62948949160028
N        -2.44698258411796    5.70389465299286    6.77753603165356
C         0.45953031773936    5.86583972594559    8.80886921353452
H         1.09641071113394    4.97864987647951    8.70803753712008
H         0.94705626758656    6.72442305975252    8.29226320102203
C         0.25984163858816    6.16662692856000   10.29414070654919
H        -0.24060763829349    5.31307905373525   10.75662861282950
H        -0.39354710792286    7.03613401910431   10.40593868371530
C         1.58950270983852    6.43500960824836   10.99279644697516
H         2.22174131231320    5.54783304087124   10.91707957026156
H         2.10848056139687    7.25345467067479   10.48633305640098
C         1.38995218194037    6.78994021667059   12.46074554833884
H         2.34747298585365    6.97045857638722   12.94280884654949
H         0.78214526443190    7.68700460774352   12.56017348265490
H         0.88915863608360    5.97855692426869   12.98367346685268

