36
CSD_code = UDOPAH | q = 0 | S = 0 | Stoichiometry = C14H16CuIN4 | MND = 4
I         3.87414873071135    7.71076644861232   11.91074156297949
Cu        2.13082745625800    7.76806996060399   10.18588624758450
N         0.55984573245798    8.98009132290327    9.71582143619842
N         1.96219062584168    7.22893669213645    8.22628307903237
N         0.46906519658074    6.28531420901384   10.36368910065466
H         0.59312030071498    5.69244057416734   11.17614111993233
N         2.95397310608977   10.43250182845511    7.82929651749022
H         2.46288095993992   10.74636884568774    6.99739030780869
C        -0.72735409278810    7.10248852474820   10.49239190394217
H        -0.80675366510057    7.41804274416787   11.53766527974436
H        -1.64252329151635    6.55138772909152   10.22319380938397
C        -0.60850478726880    8.33958858558629    9.63786341203400
C        -1.63125279316016    8.77988695559334    8.81627741620930
H        -2.56787530604719    8.24528274403180    8.77834515036887
C        -1.42719324393971    9.91703852826679    8.04643179365126
H        -2.20753341544628   10.28757790526272    7.39907048369303
C        -0.20383241668353   10.56033163008026    8.11856236257877
H        -0.00663121664298   11.44359279145024    7.52981775850634
C         0.77736396782522   10.06031663765991    8.96732946941029
C         2.15245762990528   10.68037683519312    9.01596873756530
H         2.06220139922256   11.76612504355311    9.12026357677578
H         2.69635424279377   10.28777102291315    9.87892188209903
C         0.54721430042840    5.50995798317527    9.13545169760597
H        -0.40039261543293    4.99989510530861    8.90057690077916
H         1.32651987535707    4.75252367367593    9.26637634707597
C         0.94609465602210    6.39790534520212    7.98360137789742
C         0.29868923612097    6.37030090034750    6.76096439806180
H        -0.51678016683870    5.68400724542297    6.59170095433232
C         0.71827663417671    7.23933301419374    5.76289654704238
H         0.23583189149286    7.23840480955183    4.79725375078062
C         1.75885392247369    8.11124870482874    6.03242660386190
H         2.10848883576517    8.80546357389392    5.28318950513109
C         2.36111664749014    8.08332057497080    7.28520729654286
C         3.43910311489992    9.07415941553587    7.65058191627340
H         3.91844035783183    8.76147107973182    8.58171131957493
H         4.19396819046199    9.10481101498151    6.85870897739714

