75
CSD_code = UDOQEK | q = 0 | S = 0 | Stoichiometry = C40H18Cl8N4NiS4 | MND = 4
Ni        2.01034952659247    6.65602233762760    3.28029317962321
Cl        1.30196610594273    2.53521744943339    6.60747289576606
Cl        6.60409868676520    2.30198823446299    7.43729371199872
Cl        5.30765732181444   -0.68972269064728   -5.27210793176901
Cl        9.61535194503972   -1.29031741187475   -2.12963800582818
Cl        4.81714462965598   10.70770719639422    1.33722512843828
Cl        7.79354407164264   10.79425933360457    5.80797998650554
Cl       -4.36468090240459   13.50246745101700   10.38764442122663
Cl        0.27566975979661   13.84501931104919   13.06015857695072
S         1.50230505553140    5.75014805331072    1.43397387953664
S         0.14563739753332    7.60084288997541    3.61941407200085
S         6.62527889123839    2.36669836110503    0.62406500917306
S         1.55076592348137   10.58289589442325    8.86235144051184
N         3.66212454993728    5.83263623629218    3.19587584810126
N         2.63806231398889    7.39846920004258    4.85111125753944
N         4.63748937417568    2.49030913194108   -1.04325203576508
N        -0.79124766240861   10.55788308258551    7.73957947930062
C         2.96695700473454    4.87690528016262    1.17942940170983
C         3.96416839007007    4.98646866194001    2.20710264600567
C         5.14061626501949    4.21414288666378    2.10600727904636
H         5.89395863131825    4.23810119061485    2.87506023693334
C         5.29775494074299    3.41612879060409    1.00432346101862
C         4.31567112560824    3.33541379833222   -0.03662431894319
C         3.14849409930659    4.07238110228621    0.06556189219979
H         2.39009357059114    4.00528033873887   -0.69667853316297
C         4.50680188357966    5.95153750273150    4.36743692408357
H         5.56211942261891    6.05306355100974    4.08140624237834
C         4.33174186558055    4.74518820255186    5.26840473268252
C         3.05579719664571    4.24637692596153    5.49754228835647
H         2.19313529455885    4.71088901503689    5.02280200588197
C         2.88627816102914    3.15024001531576    6.32579628942135
C         3.97351207154295    2.53703833516742    6.93122485147583
H         3.83577589743728    1.68001926313938    7.56986246042982
C         5.23934517537771    3.04859556679845    6.69536355446413
C         5.42876803239972    4.14808344774418    5.87167053347500
H         6.42464183972887    4.52909844918932    5.70580413819785
C         5.76995348473275    1.91242394980349   -0.87509034705134
C         6.34383535517038    0.95886164537422   -1.79455107129359
C         5.63726470306290    0.63327318126612   -2.95500667681330
H         4.68475472056677    1.10196445585198   -3.13932988880432
C         6.17381405171341   -0.28262961675205   -3.83999717906415
C         7.40126900713066   -0.88528681092843   -3.59913538840608
H         7.81016302489304   -1.59880890866391   -4.29576580933825
C         8.09093206717435   -0.55062773959295   -2.44285259324684
C         7.57825091337319    0.36237063449881   -1.53899816559269
H         8.12911826184030    0.60896880374344   -0.64452032306565
C         0.52902002254522    8.36795016479245    5.11515537807239
C         1.87545534829990    8.20912002532727    5.58947870277128
C         2.27679313721807    8.89632177681806    6.75467279885261
H         3.28857064172487    8.83864277272867    7.11886133955268
C         1.34362043880778    9.65088030815922    7.41427336288988
C        -0.01037765218816    9.77432446714525    6.96031243385988
C        -0.40400129519536    9.13018471816949    5.80016624540438
H        -1.41127694695182    9.23218374763327    5.43183412088093
C         4.05207903920996    7.23473800174163    5.12106480355623
H         4.23668943234956    7.10668015525335    6.19565333026896
C         4.82425705318822    8.43329172243691    4.60612247882119
C         4.50884355346721    8.96250533674839    3.36106631583916
H         3.70635891582247    8.52542050674329    2.76767391383054
C         5.21204580412035   10.05401916138097    2.88145977530465
C         6.22920339998435   10.63247628600635    3.62685801540890
H         6.76877087056001   11.48622126556861    3.25101794913852
C         6.53403346907484   10.09085155965808    4.86506413207790
C         5.84273833459051    8.99563089881106    5.36112662110009
H         6.10062072163651    8.59132309453923    6.32770852410192
C        -0.16798267368124   11.04951590037389    8.74682516670768
C        -0.76784630286682   11.91450960711915    9.73475030136111
C        -2.11668136644044   12.25387717887866    9.60295818812203
H        -2.67764727328440   11.86489605866196    8.76932209661198
C        -2.70213690297939   13.08004991494774   10.54350125575560
C        -1.97673291306939   13.57933041436256   11.61704083370159
H        -2.44351351521135   14.22254285450971   12.34503981665818
C        -0.63843949070890   13.23325622180212   11.73362174672638
C        -0.02591104333907   12.40863870506625   10.80725217503315
H         1.01634374744457   12.15083119527930   10.91492862130483

