56
CSD_code = UDORIO | q = 1 | S = 0 | Stoichiometry = C23H29N2OPt(1+) | MND = 7
Pt        2.33406858072943    2.28857891402600    5.07641616993409
O        -1.03707612759968    2.00039760271673   -1.06667930266167
N         4.61538397858144    2.25962502190432    4.89293934104943
N         2.90051702609197    2.09798322565901    2.79787065416664
C         0.29388552678397    2.34412585354409    5.62399838863702
H        -0.21588811530126    1.40571204477167    5.40728372251556
C         1.09568061460263    2.35610839270558    6.79471496468992
H         1.13309582861711    1.42755163659027    7.36695166256837
C         1.71272500332691    4.84898349067763    6.87625416216467
H         0.82686962910826    5.43855878953923    6.63763611113249
H         2.34226010111873    5.46374217354758    7.52090831331940
C         1.31211872962218    3.57860668570805    7.65485789576978
H         0.39038146885123    3.76852902449875    8.21409399347617
H         2.08174431811615    3.35131938889515    8.39489298460447
C         2.46085083018820    4.57385024890491    5.59607941323757
H         3.52876299367200    4.78018016135436    5.62019906307903
C         1.86052694465014    4.43249963250072    4.38358685460463
H         2.46347870452168    4.57946585011813    3.48951095098982
C         0.37417999789569    4.42981659002765    4.13726841062078
H         0.01265272082307    5.46269679906824    4.16652459667199
H         0.20176168763349    4.06022038599734    3.12386333018047
C        -0.44365706520814    3.57227223240421    5.12563124589918
H        -0.75057172259119    4.16871405104646    5.98601795840299
H        -1.35538508151898    3.25513327021412    4.61790606775863
C         2.48273245937531    0.24379047654959    5.23357967697079
H         2.97267537462467   -0.14350240246742    4.33715246967274
H         1.51848818174950   -0.25560820821448    5.34059505388046
H         3.09827256003288   -0.01691170665152    6.09857985313704
C         5.44999505113925    2.29422832362251    5.92602943272126
C         6.83354945341526    2.25305058684259    5.74510738496075
H         7.48132353967860    2.28918833542028    6.60626111834506
C         7.35391850093687    2.16256478134541    4.46734341981574
H         8.42009387098226    2.12585590054883    4.30780711694564
C         6.47821483896654    2.11498408334345    3.39618012962558
H         6.83813309944440    2.03587316881216    2.38296066848543
C         5.10803821773528    2.16571668782142    3.64588913271360
C         4.15745722916423    2.11050969341409    2.55574458601640
H         4.56897725665383    2.05700361388540    1.54878481805097
C         1.94140254335543    2.07894132187905    1.80556234937639
C         0.68979360210765    1.55014942338473    2.13133435863030
H         0.54917543870204    1.15361932813029    3.12746169346482
C        -0.32618689960041    1.48949105135006    1.20368118784322
H        -1.27130176617534    1.05311692042064    1.48390662775872
C        -0.12408259046624    1.99179386007077   -0.08571108975489
C         1.12226393408523    2.55358811728323   -0.40604564059885
H         1.25505658791521    2.95691206067629   -1.39697578114669
C         2.13966692817960    2.58799840160405    0.51278699948921
H         3.07835450520771    3.04911554836911    0.24540849099441
C         4.87162386282479    2.38564500656118    7.29661472634964
H         3.79261429424026    2.23727447044387    7.25053421310702
H         5.08501382403105    3.36156766026073    7.73113828701383
H         5.31293729136074    1.63173094507189    7.94490593533867
C        -2.31687153001294    1.44965020413153   -0.83611151695734
H        -2.85644140400500    1.56151817715952   -1.77437922213123
H        -2.84743785757343    1.99011881446128   -0.04695069081162
H        -2.25371697078875    0.38865388804885   -0.57890274211904

