107
CSD_code = UDOSIP | q = 0 | S = 0 | Stoichiometry = C41H61P3PtS | MND = 4
Pt        0.46742265677152    3.18730526594616    5.71877055440292
S         0.78877099620158    5.25684017452167    9.60557984538382
P         0.05863202179332    2.83749391369741    3.49137263269058
P        -0.81429507472714    5.12960497906114    5.51807029994598
P         0.77844153595037    3.35709323117665    9.19578179425497
C         2.84439678553284    0.96646099141407    6.69435332549295
C         1.83380205366982    2.04638772401692    6.76189322936687
C         1.26448292809852    2.87943010593052    7.56549393952889
C         1.78539274050680    2.33484170723953   10.32215395110414
C         2.69065449408838    2.94106947245075   11.17994035838780
C         3.49085808855922    2.16193943764729   11.99627406318140
C         3.38796114098789    0.78146485160599   11.95050813762134
C         2.48562732428455    0.17616005264349   11.08816098358538
C         1.68439984336563    0.94910914000199   10.27040210700170
C        -0.88439780307196    2.60400561623535    9.34466489754530
C        -1.47235748820585    2.63571089891902   10.60339092870476
C        -2.74107935745732    2.11975808023382   10.78700277038859
C        -3.42536776236175    1.57110487347815    9.71366787659247
C        -2.84367028955164    1.54856380234382    8.45614315225126
C        -1.57576822897900    2.06895882005358    8.26750954100247
C        -0.96203204557073    4.24990140336842    2.81841857220210
C        -0.88287898098120    5.50340886604002    3.69139022456755
C         1.48731803915759    2.79707522235805    2.30288089004931
C         2.29626982881096    4.06293998980162    2.59128987881746
C         3.60968750367180    4.09277919803589    1.81812200759299
C         4.44381483919699    2.85756586799563    2.13558990401685
C         3.65342121947308    1.60029411608009    1.79340648160899
C         2.34323180629564    1.56208842599152    2.57405797193418
C        -1.06783159913860    1.41720633438564    3.07316269462360
C        -0.71004150604981    0.19065248560380    3.91113508214183
C        -1.76462093728141   -0.89477069472500    3.72363448223225
C        -1.88417879707697   -1.26301235552757    2.24656411523604
C        -2.23024679623538   -0.03386583025221    1.40983340656356
C        -1.17669044852445    1.05748123421065    1.59499169849850
C         0.16042612189430    6.55099284911425    6.18318861557807
C         1.63066649875636    6.35510400497473    5.81240002337527
C         2.48674014879334    7.36351539285124    6.56835200626568
C         2.04098103373218    8.78270025888899    6.22558206472438
C         0.56268459737649    8.97561015509423    6.55249380193104
C        -0.29883435154805    7.95618678676709    5.80747988731015
C        -2.55968924249372    5.47680547447129    6.05812187596377
C        -2.62067260691041    5.57275544585603    7.58083637567906
C        -4.05876785136829    5.71490345745687    8.06866765551674
C        -4.91322502222025    4.55130436891168    7.57939511751762
C        -4.87836025828646    4.48098620304085    6.05676622398859
C        -3.44357643924254    4.33245518607541    5.56143432040943
H         2.75017119528432    4.02130249939547   11.20236711336330
H         4.19428698539878    2.63104332311681   12.66867474724333
H         4.01211919676366    0.17257401938708   12.58830984568907
H         2.40923430395300   -0.90139787674800   11.05514591069498
H         0.97726130477882    0.49050398903874    9.59173062602803
H        -0.92512588627874    3.07332701977209   11.42893324084820
H        -3.19797719891812    2.14405204247619   11.76552670826078
H        -4.41664871565885    1.16569130940890    9.85659945270553
H        -3.38018068676550    1.12239221606242    7.61977156771465
H        -1.12020174225129    2.06503330637617    7.27305306807238
H        -0.65188330158260    4.48104820473582    1.79464410368079
H        -1.99577102124523    3.89636824927336    2.78018014215130
H        -1.72424220770062    6.16990865627429    3.47969890177364
H         0.03920811801323    6.04379411841381    3.46455797180045
H         1.13184653901750    2.79920514526526    1.26567491804826
H         1.70783390158306    4.94727037265844    2.33686157026750
H         2.50147323314767    4.09260845416086    3.66963375252918
H         3.40002953960304    4.12209115388366    0.74534441305892
H         4.16549448095893    4.99717373411232    2.07490295534210
H         5.37838291223086    2.87949069686777    1.57131422241199
H         4.69190321214660    2.85287221297742    3.19914465921600
H         3.43917864975251    1.58812857917851    0.72125124737992
H         4.24360094319346    0.71080274644500    2.02522069971532
H         2.55593647354307    1.52575510591968    3.64662271393043
H         1.79444607214882    0.65655605156466    2.30836453252251
H        -2.05342679888887    1.76314832514167    3.42048843408087
H         0.26500793244174   -0.19881715651935    3.61440776940655
H        -0.64203808557063    0.48957564714176    4.96417349196371
H        -1.49993079086721   -1.77895145377204    4.30716756053861
H        -2.72982278255846   -0.53170968285529    4.08508934684797
H        -0.93522741083998   -1.67975891964543    1.90043218747321
H        -2.65194980326896   -2.02813033303226    2.11442679221379
H        -2.29614158701347   -0.30904071306299    0.35484785676672
H        -3.20676527883754    0.34893984734523    1.71667733265534
H        -1.44820151721465    1.93915335439481    1.00905803924506
H        -0.21685577998528    0.69001108945776    1.22786710965101
H         0.09080722141751    6.43383105897130    7.27255151584199
H         1.93321970155406    5.32847769328925    6.06984491075509
H         1.77728128233446    6.49349756690186    4.73744056812576
H         2.37463669614817    7.19263234273989    7.64051017308769
H         3.54006644299365    7.23060842202954    6.31117096250879
H         2.63871398494430    9.50570401511752    6.78420104791969
H         2.20424405625285    8.96735431053018    5.15992209515047
H         0.41531487527582    8.84744760388521    7.62690299087168
H         0.25120300132793    9.98886445112089    6.28681461975508
H        -0.19673965597245    8.11321869702959    4.73051323750221
H        -1.34734699528064    8.10473224047253    6.07343993014882
H        -2.89653718011539    6.42041223234541    5.60999993293869
H        -2.17744453241636    4.67103458911201    8.01140256231897
H        -2.03631279700455    6.42483078953711    7.93101903584495
H        -4.06893623610316    5.75222547644470    9.15963953654354
H        -4.47758263308035    6.65407958883928    7.69665707455116
H        -4.52336198145706    3.62046811218055    7.99646079126079
H        -5.94283911605755    4.67111677356171    7.92391821705701
H        -5.47956507354340    3.63873650810693    5.70553279399009
H        -5.31152104072075    5.39536975283210    5.64228015928816
H        -3.43618315101822    4.30542002426687    4.46855243886261
H        -3.02550955596980    3.38830222595963    5.92403226205615
H         3.19125375116763    0.71074341182955    7.69796599895282
H         2.42162110136615    0.07789628893442    6.22458659521961
H         3.70219207515151    1.28421350540698    6.10044577751567

