89
CSD_code = UDOTEN | q = 0 | S = 0 | Stoichiometry = C26H42Cl2N2O16Pt | MND = 4
Cl       13.11202648511264    4.30258684852817    2.36304185880054
Cl       12.49375975809784    1.49081994999141    6.03333715969833
Pt       12.83764346550324    2.89331416837408    4.21097075675560
N        14.26835121586410    1.48750188599179    3.63521104030020
H        14.00448004254977    0.93615498170961    2.81129294430420
H        14.22738559165723    0.86528540546836    4.45514701103799
C        15.64762065162277    1.94955941132050    3.42806525477644
H        16.35848611529614    1.14446244169159    3.65891177118148
C        15.85205518127333    2.33114875752581    1.94961416233348
H        15.17534006172530    3.16663879799320    1.68077891406899
C        17.50964115188040    3.90905841313957    2.44452662644060
H        16.80741980575832    4.71216713006521    2.16623966654335
C        17.38765157603188    3.67042185321769    3.95957243146333
H        18.11901620448326    2.92018916081452    4.28903022965056
C        15.97584922705465    3.16927598201554    4.29350086192399
H        15.25147819795838    3.97429666451136    4.10068423680361
C        15.50817504661514    1.44838016737452   -0.20165980681384
H        14.75806778165845    2.21463839571958   -0.42280039176105
H        15.22383344016166    0.50325180616075   -0.65766796433139
H        16.47955654997347    1.77016961485106   -0.58052967791865
C        18.92576237486205    4.34367464207473    2.04451277194155
H        19.05531526210983    4.15619405954337    0.97665455847993
H        19.06056198367798    5.40683106185828    2.26955714554089
C        20.67132902943957    4.25059269451405    3.63752608028035
C        21.59001628792844    3.30376157820168    4.34721720709089
H        22.53311167872978    3.79578722137784    4.56565856115033
H        21.74164029780853    2.40679449326441    3.75607889001080
H        21.11311608346629    3.03887748291917    5.29117532785352
C        18.44603255588371    4.86523327714049    5.70975082799089
C        18.62919231193876    6.24407417667955    6.26235962708243
H        18.90419198846016    6.19086752999653    7.31115667440907
H        17.72769014586230    6.83103057797966    6.11959158370074
H        19.44312445096130    6.70581163625901    5.70430282553947
C        15.06643425685452    3.47086036092261    6.47241418448084
C        15.17809091227630    2.97898374694663    7.88061113251974
H        14.94490110424124    3.78104767093926    8.57426550209145
H        16.16744708423161    2.57314464906016    8.06387244934286
H        14.43639348598716    2.18945808391544    8.00300025035388
O        17.18786131815683    2.73495441524688    1.73722460517274
O        15.56956110595963    1.20413340732131    1.19413695472184
O        19.92145530094593    3.60204982462919    2.72923855399237
O        20.58729736212436    5.43236437130992    3.84873511367607
O        17.62649080955275    4.88971272773192    4.64140056720282
O        18.96544014794296    3.86396845267911    6.12507048349926
O        15.92687229017629    2.82121684712743    5.67154425037876
O        14.29772157702569    4.31849051492305    6.09036197174863
N        11.50924416779213    4.28350792545795    4.94866204954537
H        11.89475461128905    4.52948324254546    5.86903477839416
H        11.55282614215176    5.11975604222476    4.35448286769381
C        10.13187481423729    3.83386673861443    5.12124566597832
H        10.15085249408036    2.92004497314433    5.72906893936385
C         9.27215762476939    4.86953808899507    5.87127671851803
H         9.18344729104500    5.80719503852972    5.27081066620372
C         7.27767556483518    4.06637633991426    4.90284681803099
H         7.12328112045247    4.98725007309110    4.31584299276160
C         8.02085013291206    3.05835187044002    4.00751777194358
H         8.02868424258571    2.05969130757981    4.46390409876799
C         9.47423438664978    3.51713269046036    3.77511928588671
H         9.46391924131710    4.39975044413282    3.11588694502331
C         9.16081325882195    5.99891390094536    7.93485256562039
H         9.02854097717619    6.97236772174817    7.45100599366898
H         9.77086867112057    6.10644590129373    8.82770941282205
H         8.18591796026426    5.58111662845541    8.19095310316937
C         5.91641879873637    3.51133506921037    5.34291609922959
H         5.37296488933638    4.28423672414244    5.89598759668250
H         5.34837893425337    3.17881906680166    4.47344093026110
C         6.14496609884653    2.62074688302062    7.51194329587297
C         6.55869199461462    1.37710982126274    8.24493960232483
H         7.64313238961000    1.38999997089339    8.34525923707922
H         6.27131092707259    0.49512978248589    7.68138730344370
H         6.11786348348322    1.36748057211380    9.23716735727772
C         7.32230891759218    1.86348438804320    2.07757154378732
C         6.65925602990568    2.06211578947265    0.74881019397549
H         7.37761161001019    2.56846098611150    0.10513898446270
H         5.78525277407952    2.69728237832535    0.85340432877053
H         6.39667203497627    1.10177533635102    0.31677434593504
C        10.28331041835471    2.45616665338049    1.80705593847536
C        11.22489992428886    1.38481263104027    1.35041318452528
H        10.92105633673528    1.01329679593795    0.37688417723827
H        11.25178250675542    0.58560710491792    2.08429192179283
H        12.21179552161148    1.83917794430102    1.26460788843893
O         7.98642197408030    4.34605308233209    6.08177455766600
O         9.88046511449541    5.11620817054614    7.08531521595382
O         6.11233783430480    2.39110046192260    6.18317050381920
O         5.86650494535647    3.67242916597667    8.01704759374466
O         7.31100957075607    3.01762695435311    2.77915684134830
O         7.81091559758808    0.84553042610401    2.48077039782400
O        10.24491549723760    2.50077288147086    3.15365995195531
O         9.65142441756592    3.19391469104090    1.10130514958949

