92
CSD_code = UDOVUH | q = 1 | S = 0 | Stoichiometry = C47H38CuN2O2P2(1+) | MND = 4
Cu        5.27881237182806   16.61784089455860    1.19662626186824
P         4.84068961580576   17.71526707563739    3.19021888322367
P         3.84268153522824   14.94585403830653    0.67313506504707
O         7.67916526823560   14.98167478444990    1.90938915452077
O         2.52425735561977   16.74250876390159    2.14759063947279
N         7.24933316498274   16.85276498019174    0.78632227723377
N         5.24298356104958   18.36905283913213    0.01593062130192
C         8.55997130187779   13.98334590679430    2.39242918418479
C         8.16954896958009   15.96439627709522    1.14112213540179
C         9.49977794797605   16.09143173120722    0.73482291042893
C         9.83780443017014   17.17576458098861   -0.05444720844426
C         8.87421404673674   18.10919241767887   -0.40351561562460
C         7.57280235575894   17.91819667650510    0.04596585043967
C         6.46733435824487   18.84517256642273   -0.23055117653531
C         6.65470103922120   20.15219680067790   -0.67915857859816
C         5.54594076201313   20.95705187825798   -0.87584648120944
C         4.28134987746056   20.44362023869222   -0.62030780561287
C         4.18404145073870   19.13737875656608   -0.17150422375879
C         4.54502772319011   16.47771949451080    4.49334984758654
C         3.84967229462489   16.77318127201955    5.66194596652165
C         3.59415315831023   15.76965334511718    6.57830897431339
C         4.02249350228182   14.47434743174510    6.33337642941222
C         4.72235368660650   14.17973915695970    5.17486650540204
C         4.98379868592175   15.17951195032693    4.25639310121053
C         6.04035206633163   18.86626059901065    3.92069075110052
C         6.78782667254501   18.56382138628905    5.05299154016882
C         7.75799287354323   19.44696856329026    5.49380997687138
C         7.99848402450344   20.62321207548511    4.80307652826907
C         7.27069487318848   20.91851713969191    3.66014404903095
C         6.30243966572324   20.04024633870106    3.21456509839551
C         3.27412070133825   18.64306244751751    3.29862414677934
C         3.06018100258523   19.90327960605899    3.83732150601246
C         1.78002891768813   20.43365724335736    3.84390862627058
C         0.71805657438988   19.72251615157479    3.30939045239960
C         0.91972040535542   18.46848782922982    2.75218042535682
C         2.19683024537685   17.93817380004894    2.75263344489395
C         2.14804092877531   15.54194377542885    2.68053690330355
C         1.33192726746167   15.35537872140580    3.78010815694420
C         1.07922380702917   14.06139031079265    4.20996084071219
C         1.63562330740286   12.97521195565486    3.55693394412914
C         2.46329371413396   13.16557956178553    2.46190980473030
C         2.71851533908946   14.45093439599934    2.01267398963796
C         4.39993184431075   13.33147500058848    0.04200904753877
C         5.41794780511683   12.70484107431592    0.75719641186128
C         5.89896488835935   11.47450189494999    0.35280265479065
C         5.37379766870913   10.86689525638645   -0.77749078888999
C         4.37049096079085   11.49289190560127   -1.49864560746447
C         3.88153473616680   12.72356000946660   -1.09502021127773
C         2.69842929094970   15.51638244932396   -0.62056254673979
C         1.32750969287169   15.28856574779194   -0.59266132653536
C         0.53144562617082   15.76901427992518   -1.61802785954332
C         1.09510733010924   16.47108055116488   -2.67114128020008
C         2.46261251301620   16.69665157043397   -2.70322755135427
C         3.26143016254805   16.22434279305537   -1.67904352769698
H         7.95691560858960   13.34046481604912    3.03083995246101
H         9.36799036862784   14.41888054603373    2.98543172908921
H         8.97683527852092   13.39301598787961    1.57232257773537
H        10.24673268542538   15.36897513231390    1.01605203311092
H        10.85471184787357   17.29382183361592   -0.39536142504665
H         9.13314250732912   18.94980252153644   -1.02407604876066
H         7.64466398997646   20.54019268506945   -0.85288025649718
H         5.66573771901240   21.97291313240575   -1.22015447561050
H         3.39606316444423   21.04093823058504   -0.76481586685481
H         3.22673623495074   18.68150424165852    0.04290863343431
H         3.51125412419631   17.78345423012642    5.84854159971249
H         3.05460021380921   15.99702964292728    7.48545942454414
H         3.81047495027215   13.69415669141438    7.04833636718129
H         5.05446416575025   13.16952358121312    4.98695366967942
H         5.52549670692107   14.97425363186833    3.34016688995241
H         6.60323699846596   17.64378269429022    5.58989180655257
H         8.32897410635978   19.21608579315929    6.38069026263639
H         8.75512247982591   21.30912656694474    5.15205456770811
H         7.46153908277427   21.83291680686409    3.11790642118424
H         5.73114386062769   20.26009299879477    2.32063384175205
H         3.88453541583563   20.45960353551097    4.25938431864440
H         1.60969984872840   21.40869109373247    4.27407235633578
H        -0.27443303932946   20.14543651868880    3.32200186019221
H         0.10222194203590   17.91122230008441    2.31948393850773
H         0.91167081779501   16.20198468919714    4.30211357943386
H         0.44277630167670   13.90674228986405    5.06732623277430
H         1.42824737924470   11.97504216896611    3.90392652753951
H         2.90836114128269   12.32069478647533    1.95736927971769
H         5.81948301311424   13.19894959234798    1.63101228485353
H         6.68289617136947   10.98623078231644    0.91331256250171
H         5.74923975241536    9.90692194316582   -1.09763989733295
H         3.96457407061341   11.01917851130443   -2.37975652363229
H         3.09803051258565   13.20770032940617   -1.66001056749884
H         0.88665632901890   14.73487129641523    0.22462877544723
H        -0.53349643006877   15.59105543428315   -1.59753075145457
H         0.46843795961740   16.84168402045418   -3.46805752966897
H         2.90207017737645   17.24178418220485   -3.52552916573348
H         4.33062917386522   16.39766646876582   -1.68321930187895

