63
CSD_code = UDOVIU | q = 0 | S = 0 | Stoichiometry = C29H30CoN2P | MND = 6
Co        5.53523246534562    5.24843250220822   11.69746123467975
P         4.01956985923801    5.73623154786119   13.22536041406653
N         4.39259112109768    5.38069722828798    9.92849077514545
N         6.45096955866318    6.95842024891439   11.31580760371949
C         4.11586305747999    6.40059285588912    9.12805281900134
H         4.47958103986811    7.37206872571272    9.44198144107115
C         3.40665588829104    6.27638106754261    7.94917075410682
H         3.21856883528133    7.13994952488238    7.33043252554795
C         2.93976132234204    5.01516116025016    7.59066078710030
H         2.37150097443533    4.87923774023342    6.68158339058094
C         3.20871080271243    3.94844926477939    8.41790776801395
H         2.84887288234133    2.95876109116214    8.18284522093038
C         3.95662002228794    4.14913595080279    9.58548003479297
C         4.27331673987433    3.11217878071533   10.53764683262108
C         4.91642566023732    3.48894672895673   11.66546580294738
H         5.13521501164343    2.70107637806798   12.38785343711012
C         3.94182524889141    1.70111290466010   10.26523680735770
C         4.40601454694409    1.07881947379025    9.10854928196919
H         4.99998537431423    1.64580083830786    8.40601087291711
C         4.13823334916524   -0.25680826034999    8.87451911532481
H         4.50841718143213   -0.72893463076715    7.97535069102771
C         3.40294518448596   -0.99218873368042    9.78970627955379
H         3.19179940990323   -2.03539272657297    9.60387936350320
C         2.94591946843820   -0.38532431204964   10.94733441854513
H         2.37593122589494   -0.95579538570306   11.66727582613416
C         3.21679624191856    0.94968224559530   11.18509228741560
H         2.85982273921853    1.42341697929070   12.08929672091306
C         6.30600735719689    8.26060024406014   11.13432383491895
H         5.55347805071261    8.75705400585725   11.73425826193645
C         7.06950395288802    8.97190586226153   10.22155297114738
H         6.93412803615737   10.03657664506563   10.11120080290416
C         7.99750203466794    8.28483896592679    9.44780451297832
H         8.59517953184116    8.81136183188526    8.71777917673657
C         8.15379439412310    6.92333735765995    9.62948569511789
H         8.86476048634231    6.35384320404653    9.05061028080555
C         7.37498320845439    6.28892852744842   10.59638672817807
C         7.37523867042953    4.88341697671944   10.99493375551421
C         7.30036705919075    4.69618120422000   12.40757186402358
H         7.71141530064157    5.47567954895482   13.04526624678033
H         7.47332170318984    3.70079319271735   12.79593233026171
C         7.62548932415803    3.82378869920630   10.01778504292989
C         8.20302547471116    2.60457349410066   10.37857563280346
H         8.52542282902639    2.44569265858148   11.39651978080298
C         8.37309049265417    1.59677635965092    9.44994785292276
H         8.81679322438376    0.65910255964121    9.75337246477654
C         7.98154497971384    1.78021735733506    8.13458319519115
H         8.11248764300515    0.98921359898885    7.41066633007016
C         7.41668908241091    2.98796841076206    7.75687680355395
H         7.10328808175209    3.14198506805738    6.73310929549090
C         7.24071359511262    3.99505613788792    8.68372213115960
H         6.77383542673753    4.92171756450756    8.37884421181782
C         4.14119932924974    4.82258002786522   14.81182131392549
H         3.32326973946153    5.08799663512255   15.48074578440852
H         5.09316251794466    5.05863049871016   15.28208950401294
H         4.11505701249286    3.75635403608911   14.60214471943552
C         3.81219374995424    7.44865748971043   13.87311851776312
H         3.05781202094295    7.47857260886391   14.65843889915283
H         3.50911156009120    8.10314166304442   13.05835082521020
H         4.76385897276888    7.79641194485643   14.26968313904514
C         2.27574376878042    5.36930892803484   12.77898133334533
H         2.19965879995249    4.31965154038546   12.50424525730766
H         1.99448935421098    5.96934449890634   11.91565779512636
H         1.60513802290615    5.58533146408237   13.60996120234113

