106
CSD_code = UDOXIX | q = 1 | S = 0 | Stoichiometry = C55H44CuN2O2P2(1+) | MND = 4
Cu       -4.77136383117287    1.67475741395782   11.24676348906756
P        -3.35495924028235    1.71706952576969   13.03444288029183
P        -4.17877029360866    0.05281733253653    9.77272550661142
O        -6.44555901755073   -0.24984605562479   12.74447412088992
O        -3.35325042771751   -0.85614982603576   12.21496453213247
N        -5.37168889405249    3.50887059814901   10.44771416851485
N        -6.70587237844322    1.76770636230151   11.85511532159350
C        -4.67076435031285    4.25745558447940    9.61345096706200
C        -5.19682033286014    5.37148819941669    8.98205536018520
C        -6.52028791410389    5.70632419144381    9.23336164303513
C        -7.25780842289661    4.92230556232681   10.10273399774669
C        -6.64893802079805    3.82204310018431   10.70344180959198
C        -7.34479354136219    2.91964149140319   11.62897131899326
C        -8.55585150161850    3.19583226046943   12.25264846353746
C        -9.09764719561869    2.23444959191632   13.09513380057263
C        -8.43459951911908    1.03947352436533   13.30828046648633
C        -7.20994358199283    0.84929461764168   12.66472699090223
C        -6.73748643676849   -1.23033604464628   13.68644039631804
C        -7.01667927440665   -2.51052506318563   13.23275737681987
C        -7.25597035389258   -3.51704519058409   14.15185064663480
C        -7.21414842755411   -3.24639742617665   15.51004411019288
C        -6.92764878449986   -1.96610154687264   15.95340086708430
C        -6.69014243065087   -0.95040375625514   15.04471286050765
C        -5.04670300856238    0.08544166866922    8.17398339250837
C        -6.29915386938248    0.69064870955925    8.14704641083324
C        -7.02101509620857    0.74440060992626    6.96884736221543
C        -6.49100292991806    0.19864013492453    5.81092329135984
C        -5.24128813976792   -0.40150011739479    5.83245766932347
C        -4.51661365705179   -0.46011180279131    7.00874903347544
C        -2.43391947490150    0.12250968646586    9.25811027688251
C        -2.05645392971659    1.24384974635366    8.52177796762479
C        -0.74629222616811    1.40573308767216    8.11832242922124
C         0.20388930587177    0.45647387579340    8.46112183720409
C        -0.16362143128688   -0.65301294457030    9.20219532401891
C        -1.47759805125954   -0.82386563608201    9.60178774639888
C        -4.38078738092515   -1.67519557191795   10.29323849676998
C        -4.99680899629374   -2.69651393229744    9.58536124576142
C        -5.10087256123860   -3.94966135322634   10.16428355887486
C        -4.58636421599724   -4.19756080796851   11.42756569622777
C        -3.96291676822700   -3.19483925443576   12.15945326047017
C        -3.89105281445146   -1.93539463363491   11.57421532382607
C        -3.27490396054564   -3.39541351747031   13.49850233054925
C        -1.77029167917260   -3.59491604581962   13.21370480747822
C        -3.80000995770949   -4.61001468392527   14.25994632275416
C        -3.41643127821287   -2.10508022683859   14.28551042117249
C        -3.49539111354996   -2.01720144635894   15.66944245572032
C        -3.51113234333855   -0.78838614438588   16.31094814425082
C        -3.44182007022235    0.39308224676635   15.59282846330350
C        -3.37046372833328    0.33515118533794   14.20904548385358
C        -3.37492700623966   -0.90968707881973   13.57820451984046
C        -1.63153339006441    1.74109519123710   12.45062477105713
C        -0.66545317537148    0.80201027812295   12.78579344753744
C         0.60841293911537    0.90871004626627   12.25491756841243
C         0.92463200698894    1.94691634866318   11.39594970386888
C        -0.03727023127632    2.88647686677211   11.05933683649049
C        -1.31157034811536    2.77890878637832   11.57853000141685
C        -3.38851766608335    3.16419816219511   14.13968724374890
C        -4.58407685858444    3.86804805010567   14.24178388309458
C        -4.67370368786802    4.97222287268646   15.06983473160876
C        -3.56589883542243    5.38136219543174   15.79433811756916
C        -2.37064471137651    4.68629162435816   15.69104850407306
C        -2.27708640773945    3.58029502620998   14.86641819746006
H        -3.64600587912969    3.95167135140645    9.45099602795135
H        -4.59009381587371    5.95968765129819    8.31315863545389
H        -6.97049949077150    6.56328515283142    8.75638008916719
H        -8.29205461470394    5.15257796976745   10.29906508187965
H        -9.06293649164406    4.13328253508481   12.10055136406035
H       -10.04166465438720    2.41663284249960   13.58490415891907
H        -8.84773146998652    0.27267534878593   13.94331784651488
H        -7.04431334956006   -2.70129814846820   12.17117639047885
H        -7.48469869091708   -4.51239926512488   13.80251561226764
H        -7.40470413642305   -4.03347437133026   16.22318702074652
H        -6.89073803972494   -1.75327076829044   17.01038014719669
H        -6.46106372661267    0.05102866746610   15.37845962549601
H        -6.69433560375209    1.11612812737644    9.06189333286517
H        -7.99409468814105    1.21259599137170    6.94977663416274
H        -7.05106979463692    0.24156567961862    4.88935613713337
H        -4.83136514998574   -0.82469778861814    4.92785367348328
H        -3.54022697919363   -0.92381519455834    7.02810285448814
H        -2.80952106940203    1.97507657096601    8.25501251316698
H        -0.46213027480600    2.26934776886264    7.53557727105282
H         1.22897997287058    0.58082428486617    8.14734844169178
H         0.57550704313024   -1.39483767506530    9.46604760492453
H        -1.75733041424722   -1.70154339178625   10.16564661439479
H        -5.39292241334410   -2.51094372576520    8.59816321074498
H        -5.57962558456359   -4.74987154839634    9.62081405675006
H        -4.67381537237584   -5.18997783601240   11.83793123658879
H        -1.22568631552311   -3.70733470975679   14.14856142311218
H        -1.62020228788079   -4.48785926268917   12.61088659331067
H        -1.35854433656984   -2.74233416450832   12.67610406581847
H        -3.25090627080340   -4.73730434358640   15.18854725037990
H        -4.85756316472065   -4.49689408505917   14.48519241855375
H        -3.65285148079939   -5.51422150933351   13.67631181607574
H        -3.53834370412966   -2.91389476090875   16.26511889180016
H        -3.56663309756061   -0.75454329839981   17.38818001005387
H        -3.44595048291683    1.34826010123014   16.09714357211431
H        -0.90070259413052   -0.00359540551963   13.46671147564991
H         1.36010822977040    0.17979608529856   12.51936544657996
H         1.92147287675084    2.02666089952959   10.99021643596678
H         0.21045425086463    3.69894699578814   10.39270347794399
H        -2.07663153870355    3.50361353349744   11.32722094414484
H        -5.43872016676317    3.54152919679910   13.66190725869523
H        -5.60344620809520    5.51627452262150   15.14888328892231
H        -3.63261544270486    6.24447763985765   16.43899948672474
H        -1.50897476398611    5.00893647309327   16.25597551761445
H        -1.34595789402497    3.03760021434018   14.78050767193617

