87
CSD_code = UDOZET | q = 0 | S = 0 | Stoichiometry = C40H42Cl2NPPd | MND = 4
Pd        1.22328541025850    5.83500131626896   13.27881530923163
P        -0.81497858885075    5.46484891586904   14.29533692371711
Cl        0.99620377834848    3.89945622254849   12.11068019081537
Cl        1.39645849076910    7.83718994899815   14.43237735065323
N         4.08774344467213    6.21592807554463   12.68370954596402
C         2.83424141243886    6.49458472683815   12.39255385805555
C         2.82554784215637    7.78644861180279   11.72309968110932
C         1.77200218094616    8.47179702170344   11.13510850504904
H         0.77137220050566    8.05335280959491   11.14921971748221
C         2.04350881699927    9.69724820825765   10.55304956011062
H         1.24733930317984   10.25876071684180   10.08714975175249
C         3.32999917045073   10.22176138948793   10.56655580359468
H         3.51558209249340   11.18129768369364   10.10660597340081
C         4.38177367185345    9.54173778108627   11.16672599651184
H         5.37427579924145    9.96730899558857   11.18098322543282
C         4.12111991022779    8.31453666060838   11.73629283746157
C         5.00625436183182    7.37197023759818   12.49989012989163
C         4.55696519546337    4.92633182705244   13.08263776824701
C         4.52751911466069    4.52159042106686   14.42189119825797
C         5.11178679452491    3.30583117770375   14.75912169444466
H         5.11065602075618    2.98531375340491   15.78918020724578
C         5.67848310453864    2.49413376920540   13.79882235404219
H         6.13738962306796    1.55803904278283   14.08071448254929
C         5.61105158973258    2.86010275431070   12.46939181120930
H         5.99433859814969    2.19025602396985   11.71624037180519
C         5.04699277943451    4.06858157972490   12.08416911950568
C         5.28080307295571    7.96958927028020   13.88818378121100
H         5.85263164226132    8.88807423879340   13.78200588018951
H         5.84945847271761    7.26638877874082   14.49101914277312
H         4.34392160586672    8.20580732056565   14.38912309052529
C         6.32393283075805    7.04329591408057   11.81209764745285
H         6.18015328224081    6.84694494143954   10.75415069010345
H         6.78906537940182    6.17876448996745   12.28031458490719
H         6.99622188174035    7.89225430350748   11.91064115088557
C         3.78318621620185    5.28879569026572   15.49064309194940
H         3.42515879806022    6.24139770524446   15.08573298702329
C         4.64022360751346    5.58353672900127   16.72240426724826
H         4.89816086576314    4.67019521418299   17.25310279142175
H         4.08948777855172    6.22750414092355   17.40360494824130
H         5.56344307442000    6.08858409056313   16.44710941197739
C         2.54797379499900    4.46225375118627   15.88261659077135
H         1.97534331755686    4.20035210938392   14.97603192169724
H         1.91542488000556    5.03402770753241   16.56135644945165
H         2.83965634721555    3.53673632034034   16.37571101780921
C         4.89525761005535    4.36040615815301   10.60840427562693
H         4.55317414171848    5.38998293360035   10.47326664588671
C         3.81034311459394    3.44536087194472   10.03222628937358
H         4.09674478358090    2.40072262544596   10.12577562255241
H         3.65558951227397    3.67042071523336    8.97919876789256
H         2.87140644228141    3.58880349303044   10.56074756280886
C         6.20191129057247    4.16728942970493    9.83195602393112
H         6.44254318597866    3.11176998540837    9.73650200900021
H         7.03769752292577    4.66252253826611   10.32075226613888
H         6.09662552475315    4.57485596446825    8.82861848360848
C        -1.77954198460303    6.71596058307049   13.38207912046046
C        -2.70756356975103    7.56795179862558   13.96658291310507
H        -2.92373526948483    7.48828943305965   15.02255794396872
C        -3.34413563043142    8.52663194387710   13.19607929031191
H        -4.06190021010418    9.19075785784759   13.65520159241219
C        -3.06092835509540    8.64018675422880   11.84579396008455
H        -3.55854144793467    9.39202155851685   11.25091590729125
C        -2.13398952912050    7.79338295161990   11.25693046463936
H        -1.91400358227118    7.88300079224358   10.20225799920748
C        -1.48776185610576    6.83837892045533   12.02050678735483
H        -0.76411507482619    6.15868999894116   11.55884076102725
C        -1.67660106061519    3.90767939944794   13.90283893687186
C        -1.17446655819124    2.75558108372611   14.50197975754506
H        -0.32346967917203    2.83398247975728   15.16807616848844
C        -1.75033796537783    1.52830602509991   14.24154129571819
H        -1.35503646345512    0.63652634008369   14.70555213443203
C        -2.82929637380795    1.44151818880908   13.37553510415576
H        -3.27726546905890    0.48135954518327   13.16535854388632
C        -3.32715912856937    2.58375573238135   12.77310791109516
H        -4.16489167533883    2.51603925036456   12.09397016968756
C        -2.75359297868315    3.81689232387859   13.03163008692571
H        -3.14398959696152    4.70564714211922   12.55485798200911
C        -1.33263975707107    5.71431700189144   16.02814956022320
C        -0.54647896947292    6.48482866854837   16.87841725459818
H         0.35899022021128    6.93894473767650   16.50032695643738
C        -0.93740262802166    6.68992636818555   18.18990954287512
H        -0.32339686144823    7.29141548268979   18.84410250550018
C        -2.11161785845530    6.12792105291478   18.66169396768708
H        -2.41546989472516    6.28639276203061   19.68609773801420
C        -2.90000248509534    5.36308016977056   17.81653850546596
H        -3.81971228645534    4.92801922454955   18.18031992996250
C        -2.51512664646043    5.15419071158810   16.50523013718999
H        -3.13297146811179    4.55667661353663   15.84929831134661

