133
CSD_code = UDUBEC | q = 0 | S = 0 | Stoichiometry = C47H74CrN4O5P2 | MND = 6
Cr        7.35941555952058    0.08605531764715    8.06908183717051
C         7.85615421898371   -1.52081453414865    7.31067706596640
O         8.15951781065581   -2.52033707173774    6.82474370331825
C         7.10264893676843    0.73547144832876    6.34209894194716
O         6.88541926288122    0.98960739263169    5.24090473985083
C         9.17212425693438    0.54292580814392    8.10773390854782
O        10.30854961766666    0.71786827579594    8.10553593329217
C         5.58600528467806   -0.47662831638580    7.94817248068717
O         4.52654148095949   -0.89154337470053    7.78124338844275
C         7.51751486339237   -0.67946839468186    9.77063628819879
O         7.61078097525646   -1.24171379935526   10.76540723656469
P         6.75903596511063    2.10791947737012    9.05256315779707
P         6.30172334187326    4.92078409667150    8.11154465689977
H         6.28650306166795    5.54124358263298    9.35650790546932
N         6.60492364623838    2.31995277149372   10.58250993411823
N         6.56283656104249    3.35816886102659    8.02533473861578
N         7.48865966618038    5.70369279988333    7.25482199064583
N         4.79874477144092    5.35248766652359    7.53157336918059
C         6.27463995847052    3.46405376440372   11.28559596818708
C         7.28281782349639    4.28204118075176   11.83472102630358
C         6.91526153452154    5.53236126501565   12.30176494082607
H         7.68051662718786    6.20333435312981   12.65063737378007
C         5.59509774500811    5.96317562322296   12.33915848825206
C         4.61501021068776    5.03356544655748   12.02521166127517
H         3.58347020469150    5.29670729487768   12.16909912487562
C         4.92228439200586    3.77358869468010   11.53061723907686
C         8.72442984463028    3.79799833796544   11.97851598339604
C         9.43082571824278    3.79568688617759   10.62158861601491
H         8.97767447267461    3.07252612219755    9.94629714963895
H        10.48138406550081    3.53740476695861   10.73931481026387
H         9.36214133725729    4.78447990655954   10.17069522361004
C         9.54031557144122    4.69204770678427   12.92408587758644
H         9.04051190281140    4.80500732412839   13.88332907483515
H         9.72097576907266    5.67590369056630   12.49542586866929
H        10.50955692999787    4.23010255229250   13.10099287950470
C         8.73504029900270    2.38675989735313   12.58190184260692
H         8.24127195250951    2.39262887440240   13.55144739417119
H         9.76033250257609    2.04795813838935   12.71596536715549
H         8.22232613731023    1.67970796784085   11.93788106312833
C         5.29247556023275    7.38845403618029   12.77972469086617
C         3.79248544725902    7.68992180943773   12.83240507858404
H         3.29369216791108    7.05660595736745   13.56222611230812
H         3.32544679447692    7.54586192009337   11.86118414562242
H         3.63881201659615    8.72659982077428   13.12694836124620
C         5.86572693296126    7.63105214442342   14.18319845450340
H         5.45044862014466    6.91169456720585   14.88562351051149
H         5.61243552096435    8.63316108992257   14.52394942476779
H         6.94740260297307    7.53351296178581   14.19615028513441
C         5.94732525055945    8.35509151462015   11.78099406875057
H         5.55609183481304    8.18474014890890   10.77859620118248
H         7.02508686689075    8.21574590466054   11.75219206022202
H         5.74306292487444    9.38710999087158   12.06035290853012
C         3.84172952850296    2.70409915809482   11.36938672353146
C         3.69446039889904    2.24583021925561    9.90749648444791
H         4.28510139073747    1.35184115578293    9.71187238600790
H         4.02698786122891    3.03074746860270    9.22997556687861
H         2.65569516398173    2.00969241713293    9.68218438872157
C         2.46883690518441    3.18955105163358   11.85384456512099
H         2.51154625267086    3.52039668500139   12.88901475036627
H         1.76258736932823    2.36303273745801   11.80004177132218
H         2.08618217768758    3.99680811751289   11.23364035282476
C         4.23132796212538    1.50718823896665   12.25164768748308
H         4.29374486702665    1.81347344515890   13.29412607301998
H         5.19406970320495    1.10352389283100   11.95273015506236
H         3.48364224807230    0.72145959120212   12.16414315634980
C         7.52694424233656    7.13882904458299    7.51695035461983
H         6.63680388052394    7.34261440726056    8.12894729559870
C         8.74777780526174    7.55434217401319    8.33893027133169
H         9.66196902043252    7.36208547031016    7.77447470334791
H         8.77961843213066    6.95350818416741    9.25171043240759
C         8.66926633700958    9.03833687314118    8.68790866766904
H         7.79359140994017    9.21786673068336    9.31586428324610
H         9.55410578671063    9.32915057536326    9.25705619032757
C         8.56438873318175    9.88134038392230    7.42079589040533
H         8.49331200890737   10.93822679157522    7.68340449392009
H         9.46548300698058    9.74614489533910    6.81854863063628
C         7.34295249291826    9.46676413580554    6.60609718270925
H         7.28322107285355   10.06184199105554    5.69293182376341
H         6.43875462246876    9.66004023564428    7.18855544262547
C         7.41665815713128    7.98435812234329    6.24727538059997
H         6.52703304226717    7.68162893538537    5.69074751412042
H         8.28365043913648    7.81960465488705    5.60554473292958
C         8.55523002282205    5.11932015373692    6.43543736827537
H         9.12837146236213    5.96651726019416    6.04258746358520
C         8.00244403386245    4.34587267432451    5.23928501519780
H         7.33139629113909    4.99324595934790    4.66909449266960
H         7.44385804476689    3.48529956164892    5.60619141320627
C         9.13376386807274    3.85891396048370    4.33766956400660
H         8.71355193556658    3.29604596287829    3.50237267023719
H         9.67119631996470    4.71789619678299    3.92643974398901
C        10.10224969231720    2.98150727252248    5.12215730546953
H        10.91767400876250    2.65405093935820    4.47455518061361
H         9.57875020752967    2.09154008659681    5.48003648770989
C        10.65834853459523    3.75131231934704    6.31382502793961
H        11.23588218372818    4.60864690836115    5.95693398508642
H        11.32846844850999    3.11206157783952    6.89038408130591
C         9.52497469823917    4.23321483453141    7.21449654289436
H         8.98635097230189    3.36855887685586    7.60295628895729
H         9.93607870432492    4.79196209281242    8.05506656189204
C         4.53672793728104    4.72506907606928    6.23459273330841
H         5.54115778898657    4.43642078725837    5.89806989600469
C         3.95682206678265    5.65966049030068    5.17478385495770
H         2.92177335339352    5.90778454110449    5.41548766972432
H         4.53566376295919    6.58504934169987    5.13956160436445
C         3.99172458904699    4.97462657357532    3.80950016649961
H         3.57417795955653    5.64363243554612    3.05375146679639
H         5.02743591418712    4.76354456973590    3.53445762791127
C         3.20451517194948    3.66878481394424    3.84456326626595
H         3.25765338819399    3.17832313800738    2.87111303650970
H         2.15358509185369    3.88388392279010    4.05307676073663
C         3.75866580513555    2.74529048262930    4.92424171485725
H         4.78819944519337    2.47668177358019    4.68081031635817
H         3.17499868077616    1.82386442075867    4.96358980325057
C         3.72118618227496    3.43006816259850    6.28870052831619
H         2.68512331639054    3.63179891491512    6.55924134169933
H         4.15244991032770    2.76528493702493    7.03846595908504
C         3.85406767326585    6.14679997958368    8.30806437386436
H         4.28813316029468    6.18738291961942    9.31973415584113
C         3.71716693599986    7.59019560377420    7.80007831211902
H         3.22329444446404    7.59878381580411    6.82947177965497
H         4.70474951483249    8.03604555623381    7.67526833935675
C         2.89000675676558    8.42163114550545    8.77713480948830
H         3.39513790245922    8.46231632295195    9.74442809490362
H         2.80344984339126    9.44479087562023    8.40516453757183
C         1.50313391717804    7.81248043982215    8.95265563981834
H         0.96745525800428    7.85117292654156    8.00126654908522
H         0.93131419369562    8.39050125168001    9.68117086062585
C         1.61638631562227    6.36294472033144    9.41203496188593
H         2.08187732566513    6.33200501876278   10.39917241346446
H         0.62132103532712    5.92144995817016    9.49864249598734
C         2.45473222655038    5.54308810240615    8.43325914085026
H         2.52389798480077    4.51419056552379    8.78238434065313
H         1.96170657867665    5.54839432674570    7.46024135165528

