42
CSD_code = UDUCAZ | q = 0 | S = 0 | Stoichiometry = C19H16CrO6 | MND = 6
Cr        6.04115423332104    3.06838340280264    3.88765261261426
C         7.04512983449517    1.61588791466147    4.51290009316531
O         7.77646613382487    0.79808535138390    4.85084419385247
C         6.12890613594816    3.87469951229915    5.57624892685068
O         6.32599548950591    4.44163478338491    6.55396262757753
C         7.65936783417076    3.91252562630226    3.52199716229477
O         8.65069458410164    4.44528751362209    3.28605037688651
C         6.24610143887947    2.38005181756047    2.15809737172862
O         6.59293788685874    2.06652254014487    1.10598881790228
C         5.16712406156861    4.59672707087714    3.26629782558886
O         4.69816715760180    5.58877411501501    2.92256558718287
C         4.20329778237440    2.30213641464398    4.33750317015038
C         3.76017694132436    2.17734976016170    5.73090321888396
C         2.49667123373337    2.64826050140157    6.11318126258956
H         1.85484449115154    3.09184247483668    5.36607797564279
C         2.08565611106074    2.59609134339053    7.42644513742041
H         1.11966589970832    2.98560216045276    7.71293435683638
C         2.91339829934906    2.03413680339096    8.40056657133719
C         4.16272032147092    1.53112975255891    8.02339389137695
H         4.79724782041301    1.08127119394914    8.77274225460206
C         4.58100972602105    1.61212983063690    6.71489924248798
H         5.54148518336168    1.20403059125972    6.43406485824743
C         2.49507389391527    1.97195205781515    9.74777193910478
C         2.13826773347633    1.91944213631766   10.89640851450326
C         1.70807998230576    1.85796956175187   12.28491982628052
C         2.93488974845817    1.63748502422354   13.17780708527024
H         2.63270599477265    1.58920567134750   14.22185940053565
H         3.64454657340555    2.45327417724839   13.05791038048318
H         3.43407970781499    0.70682150848453   12.91649530756625
C         0.72425988004207    0.69169962168882   12.44495134590916
H         0.38889430983920    0.62750250395272   13.47794050824074
H         1.20006870561522   -0.24830854067594   12.17377492697775
H        -0.14374446031684    0.83420099919984   11.80481013535328
C         1.02040217716477    3.17934803519597   12.64988800822416
H         0.69062369056562    3.15399900456390   13.68633659014473
H         0.15458234410089    3.34732986257535   12.01294795265556
H         1.70703989607735    4.01355081922409   12.52293096466268
O         3.15418541505802    2.08513317163002    3.56042352637920
C         3.24294434279933    2.18338149904069    2.15597553406281
H         2.25206139987193    1.94047655636240    1.77237167153654
H         3.97375646504540    1.47228954723688    1.76134095254647
H         3.52026359974592    3.19568630807771    1.84821789434334

