43
CSD_code = UDUDOO | q = 0 | S = 0 | Stoichiometry = C13H23ClN2O2RuS | MND = 9
Ru        9.05919775850572    0.42898407611661    2.09302311533153
Cl        7.56278130334658   -1.35803524497820    1.99252960531244
C         6.69418246826108   -0.91242743664727    5.21597981168634
H         6.97527792045034   -1.54011181956996    6.05037246236840
H         6.67155395413343   -1.48171746132065    4.29555153781802
H         5.75420246879168   -0.41485893613745    5.41073417565831
S         7.99658888948902    0.35026210897487    5.09513524646675
O         7.73352542452347    1.30892563441048    6.14215242905177
O         9.27208539125436   -0.32213239383333    5.13496934499720
N         7.92047094621184    1.10265865567047    3.66830791142485
C         6.63377635664277    1.66177306723895    3.35001093497957
H         6.32684910428247    2.33681191263195    4.15752994176966
H         5.86601324461852    0.87644093887937    3.22677113148807
C         6.79650121011049    2.39982940763609    2.02186705723779
H         5.83122048933546    2.75791990348338    1.64415594693262
H         7.47703553567919    3.24450179209561    2.15852655644808
N         7.42015311856871    1.44235556771154    1.09729549583703
H         7.64213468196715    1.89197648544291    0.20843642740821
H         6.75611629018280    0.67579917326007    0.91510212886513
C        10.88782385106616   -0.90789978036284    1.84549394839318
H        10.97844459860278   -1.99021938755840    1.85574035968737
C        11.09113209292760   -0.18930227101379    3.03344778624370
H        11.32255662447612   -0.71315883332236    3.95128877511464
C        11.04542279633924    1.22956359008581    3.04594550479647
C        10.77969109451892    1.89771539496568    1.84156688622470
H        10.80663641318892    2.98122236159974    1.80558264492166
C        10.56749761482031    1.16268361350841    0.64389305101530
H        10.44539123755131    1.71021518235220   -0.28718552520272
C        10.65410249864241   -0.24776350089846    0.61264752199577
C        10.55799677682356   -1.02346917505136   -0.68208548970172
H        10.63283335965630   -2.08920073630950   -0.44114067757045
C        11.71858049702382   -0.65753253162592   -1.61174707233419
H        12.67222334014117   -0.82030627482227   -1.11410275575363
H        11.66231448659112    0.38587660652528   -1.91417551184748
H        11.68653021692724   -1.27449024710393   -2.50635089077817
C         9.20632780486229   -0.79436325548323   -1.36304746493198
H         8.40134835540545   -1.03375818548705   -0.66829832817664
H         9.11332582059262   -1.43772394831127   -2.23442497343849
H         9.10379905434213    0.23856275640797   -1.69070698445105
C        11.30172115103504    1.96827044023901    4.31746114633604
H        11.20769401765247    3.04282776369175    4.18010801291831
H        12.29920221547433    1.73893376010098    4.69190959283774
H        10.57933752499178    1.63796122680793    5.06482918262048

