116
CSD_code = UDUKAF | q = 0 | S = 0 | Stoichiometry = C38H71ClN2P2RuSi | MND = 6
Ru       -3.62837289576977    8.48950295386598   13.84148706719689
Si       -3.26326457774631    9.16306696254105   11.66893969500207
Cl       -4.22766384539093    7.08795876014064   15.67515825396821
N        -3.38207035927280    7.87110494147954   10.48740660878104
N        -2.99105660361925   10.28943061598044   10.36114180250190
P        -5.87923366492510    9.03481850976019   14.00519999441321
P        -1.44672612182766    8.59428606215970   14.57468106236755
C        -7.10129289348689    9.49597717546740   11.53498080951332
H        -8.03952792712367    8.99025972653119   11.77506086502549
H        -6.36780834925597    8.74009617530090   11.24032857557577
C        -7.33242402385252   10.46238318962895   10.37764168428464
H        -6.37488506355514   10.89776099856686   10.08319172071887
H        -7.73024780182162    9.92355434871170    9.51472736113705
C        -8.29814628667800   11.57043655231731   10.78865955132073
H        -9.27893533344109   11.13531265210148   10.99628695330453
H        -8.41804375817176   12.28331239275401    9.96982983563126
C        -7.79611626111090   12.29126522262425   12.03708804208232
H        -8.51105712509022   13.06350002539945   12.33039730760944
H        -6.84547463233189   12.78335817567644   11.81635403471151
C        -7.60455760852423   11.30166456630364   13.18684944984880
H        -7.26210506457416   11.83751340601088   14.07358715206702
H        -8.56741207460294   10.84866591797571   13.41817918277119
C        -6.58913698542794   10.24497527718814   12.76193263802282
H        -5.67257915948144   10.77830341687824   12.46357743342461
C        -7.42832486127766    6.71075148162352   13.91406603757312
H        -6.45699691995517    6.23305052128057   13.75304198200395
H        -7.85523837849135    6.95333584296410   12.93693917358330
C        -8.35305992231018    5.74916221359299   14.65489894067776
H        -8.51586029958870    4.85149468818975   14.05364391160855
H        -7.87397170459565    5.44498987995716   15.58802745771816
C        -9.68992385238043    6.41695724565349   14.96579102924991
H       -10.20046855998508    6.65944635258423   14.02973564768121
H       -10.32789576694156    5.72810553786915   15.52371844929050
C        -9.47785838385290    7.69666817309386   15.77066043383497
H        -9.01782628154389    7.45019515763930   16.73019061919714
H       -10.43988490819654    8.17425224236254   15.97247519544508
C        -8.57199493147937    8.65837314959178   15.00340978648669
H        -9.05629257500555    8.90658013852715   14.05690423792741
H        -8.42739630974168    9.57845897429422   15.57466587579171
C        -7.23312532854872    7.98245786279518   14.73945772855204
H        -6.80074160734237    7.68179455206999   15.70425820558954
C        -5.34584056885805   10.14121442933239   15.38397315655604
H        -5.88441051260403   11.08871153271308   15.47291098016533
H        -5.44221486987592    9.58413890277608   16.32059848583362
C        -3.87172562177885   10.27500972967220   14.98680617408848
H        -3.72997809303633   11.18583329273338   14.38566255905018
C        -2.89798627907917   10.29065498724317   16.15461532799411
H        -2.98517376892395   11.22507644817461   16.72394740712255
H        -3.12765300376317    9.46277522350406   16.83017943374241
C        -1.47813807120080   10.13199593515816   15.61443918163923
H        -0.73264239471181   10.10389339989448   16.41224807123101
H        -1.25216640099819   10.97282198783338   14.94985725618918
C        -1.12577089739813    7.35105643365255   17.12773921052476
H        -2.20243197258196    7.17841018016250   17.14611613641381
H        -0.92314126985827    8.32283174563301   17.58196960123101
C        -0.43063799999986    6.26542491755893   17.94582548853110
H         0.64897928026740    6.44480357936448   17.95229272690509
H        -0.78184758107097    6.30738109078228   18.97932643629354
C        -0.71331274462011    4.88820484525975   17.35630370155700
H        -0.21215416643653    4.11537687844732   17.94409813383339
H        -1.78780393580504    4.69836394449561   17.39142958216825
C        -0.24338647945757    4.83543139843194   15.90716454556138
H        -0.47002661671068    3.85792900594713   15.47476108099128
H         0.84152125486458    4.97375730020995   15.87003817484043
C        -0.92612884220891    5.92902445864423   15.09260626674432
H        -2.00749847428225    5.76827730136473   15.10746734509850
H        -0.58854597392219    5.87666556756057   14.05389930649150
C        -0.63979738141525    7.31337635717023   15.67902956379518
H         0.44215601504223    7.50207612013281   15.66570901136573
C         1.25639386431866    9.53333296874424   14.04765657122950
H         1.76307839164880    8.69515583367390   14.52959347051163
H         1.06955003620384   10.29632842508319   14.80449405660043
C         2.17554001951077   10.10014377518631   12.96561197070482
H         1.69686142008864   10.96529970278217   12.49999797478569
H         3.11084848187078   10.43971385839482   13.41637469398715
C         2.46750693788463    9.04674686288075   11.90085195592740
H         3.10299146046920    9.47161836179007   11.12087031054176
H         3.01087873850443    8.21572693035692   12.35714769278828
C         1.17040040429647    8.52410036628974   11.28996798164255
H         1.39282334145923    7.73691688687504   10.56584927222292
H         0.66275591341896    9.33079036110679   10.75645674843013
C         0.24859812973683    7.98310957375961   12.37966466206215
H        -0.68684825896022    7.63855646668149   11.93029811055213
H         0.73631429173114    7.13551825480797   12.86627772715001
C        -0.05119057329270    9.06740943335591   13.41085392687069
H        -0.49003804477813    9.92080001180540   12.87158033640988
C        -3.62923508127075    6.45541745118998   10.71954140577381
C        -5.07121363190312    6.11586551441253   10.31759395811200
H        -5.76884158384473    6.61034002477302   10.99063118747545
H        -5.23771609434022    5.04294061208820   10.37223223781698
H        -5.27573757528536    6.44968167157020    9.30309849642776
C        -3.42904001398398    6.10491143072128   12.19639627462044
H        -2.38643363449010    6.24930667053886   12.48632372132883
H        -3.68288631956627    5.05898063765371   12.36162701539867
H        -4.09656245908114    6.70581920558420   12.85038030883573
C        -2.64032912554505    5.60518448460464    9.90420078731780
H        -1.62705519943150    5.97492806508774   10.04628870854158
H        -2.87147901060135    5.62912220226943    8.84311931004364
H        -2.68274167588586    4.57009951969992   10.23347900507597
C        -3.25760236790804    8.34486672120624    9.19890977052824
H        -3.33825175539760    7.69125966944696    8.35181194019501
C        -3.03153742973436    9.66175064533175    9.13122193455294
H        -2.89167723891578   10.21409731077038    8.22215644294576
C        -2.65620054134911   11.70161289309595   10.42343339575840
C        -3.60838913743978   12.52065279237025    9.53987124559568
H        -4.63981568849415   12.31158678255204    9.81425650541996
H        -3.47958819678388   12.28908637719405    8.48660096097777
H        -3.42139266770117   13.58257273392554    9.67827186528451
C        -1.20623384682260   11.89996672790717    9.96020233021852
H        -0.53365817140481   11.35655383487249   10.62002893274670
H        -0.94159996980340   12.95414053856392    9.98236560421524
H        -1.06690625651729   11.52891798474361    8.94819442863670
C        -2.78718166144765   12.20403630190446   11.85904462104372
H        -3.81340432466353   12.10533987222515   12.20145121835620
H        -2.50267538418081   13.25248256712337   11.91168626224366
H        -2.14752213164582   11.63321164966183   12.52624652266606

