43
CSD_code = UDUQUF | q = 0 | S = 0 | Stoichiometry = C14H22BN5Pt | MND = 6
Pt        4.90653788694218    7.90920961668029    9.35518801334021
C         3.17858094903116    6.81251428662158    9.08187758781317
C         4.44236260584111    9.13534533955283    7.76782002825181
C         3.78680322130315    9.06569935675487   10.64838718096281
N         6.12274728375101    6.69230493555645    7.99524068478463
N         7.44368578787769    6.54719687938860    8.09279620578705
C         7.90301000294066    5.89917562968388    7.02017083400546
C         6.83944609294214    5.61356518676577    6.18464866709082
C         5.73844604365140    6.14433324127902    6.84416817179308
N         6.75892012780719    9.04981124881123    9.63525658338744
N         7.98301782051448    8.54496728007322    9.48640326036124
C         8.88357984823134    9.52775001678188    9.55424240001608
C         8.22066798953349   10.72483709769557    9.75019613688132
C         6.87906925303475   10.36740187880334    9.78539050360636
B         8.30075980310900    7.04789284979897    9.27624665896852
N         5.49606827238698    6.58212395636351   11.03732383629332
C         5.54892280638078    5.26788822554910   10.85790480418650
C         6.16182089403204    4.41293050674425   11.75792878720803
C         6.74804563167088    4.94846377501214   12.89317020878012
C         6.68540101963324    6.31936106168801   13.08283005010592
C         6.05061597428085    7.09592714949471   12.12848453433456
H         2.34384950057069    7.39232732953298    8.68813536343036
H         2.85678015855311    6.37939498562543   10.03203995471888
H         3.37204937585044    5.99189371437286    8.38846160309362
H         4.06862314598006   10.10857165930467    8.08799577435104
H         3.70514011673849    8.68802726464519    7.09999241750598
H         5.36392819280172    9.29322151691501    7.20132845559769
H         3.41882626004996    8.45217166528848   11.47438181199291
H         2.92214258121517    9.53921570400506   10.18331430928846
H         4.41290614886892    9.85410250727013   11.07044860865462
H         8.94565530943394    5.67983661336005    6.91176661293905
H         6.85996970012833    5.10534323080332    5.24247577170530
H         4.71193564511475    6.15672663584654    6.53146976326597
H         9.93094655988500    9.32456532305069    9.46096606851447
H         8.64361125356560   11.70374604561517    9.84650894027480
H         6.01979671840318   10.99972829887321    9.90158367041205
H         9.44732110665647    6.94920525713314    8.97419856498973
H         8.03951817325534    6.42649694729637   10.26777658101621
H         5.08923358554808    4.88257485819801    9.95763213044986
H         6.18708360907510    3.35196911720313   11.56511178320495
H         7.24555582866256    4.31315166957390   13.61069218428578
H         7.12976494691705    6.78285799099345   13.94953069392555
H         5.99135276782885    8.17007214599413   12.24271379842542

