47
CSD_code = UDUQOZ | q = 0 | S = 0 | Stoichiometry = C18H22BN5Pt | MND = 6
Pt       -3.81728927754185   10.10149139065978   14.67105033048567
C        -3.21500153548145    9.72231066854286   12.73201179786038
C        -4.75069005413695   11.84702860426005   14.08620375273246
N        -2.01395296790606   11.21643796092775   15.10977907470075
N        -1.51204438555364   11.35550423450327   16.33622751448708
C        -0.51564288265911   12.24300989469518   16.31146851810253
C        -0.36298438202049   12.70476764426541   15.01728386898669
C        -1.33922618457373   12.02869481922841   14.29758029767135
N        -4.36433457277607   10.47764939105531   16.75611872065085
N        -3.48300743445581   10.67824292668782   17.73307721030903
C        -4.12796160210259   10.93848210923781   18.87172496912369
C        -5.48833212021375   10.91037284856005   18.62657734464193
C        -5.58332973110740   10.61953037840726   17.27230050092075
B        -1.95406742405863   10.54435956247311   17.57446844771677
N        -3.02989861782880    8.13507824956082   15.27982742514232
C        -1.81159846262912    7.73053726368683   15.52954563415478
C        -1.53079591144806    6.61428216977304   16.33355345401619
C        -2.56706483520959    5.94562249907340   16.92640621118234
C        -3.89236876876027    6.35813516836645   16.67592765403138
C        -5.02463896770724    5.76019721397181   17.26399459557290
C        -6.27478054806758    6.23874530788689   16.98084102312681
C        -6.45686890923603    7.29202920329033   16.07373981734121
C        -5.38672964303381    7.89552589729889   15.45468251477954
C        -4.07984180170362    7.45594493085233   15.79845941899949
C        -5.51563840846295    8.95962289452406   14.41931082333059
H        -2.12594832764850    9.80141702242980   12.70187445602899
H        -3.62761008137547   10.41278663970373   11.99607856317036
H        -3.47567684934025    8.70888748592372   12.42025902316256
H        -5.54012782006051   11.66929111851010   13.35404307815598
H        -4.03323333127410   12.54462734941600   13.65186392472541
H        -5.19562193093931   12.32226829406891   14.96310092910148
H         0.02494557415979   12.49211070537084   17.20172077036252
H         0.34343976872124   13.42220939096619   14.65344663862458
H        -1.57106653548112   12.09688425511327   13.25193962905798
H        -3.59217070327492   11.12654339437750   19.77973811352493
H        -6.28607379410044   11.07868552777768   19.32053311359943
H        -6.46438850263984   10.51796103726072   16.66900898832871
H        -1.67171908449373    9.38855273841239   17.42157737736086
H        -1.43529806038454   11.01622776251599   18.53502817470008
H        -1.00519178077083    8.29893066263542   15.08416890435653
H        -0.50545142174560    6.32238096132470   16.49743077871337
H        -2.38957347688279    5.10881441398711   17.58693031735927
H        -4.88507501298674    4.93301074111900   17.94407603769264
H        -7.14161625306153    5.79264060297543   17.44585516415978
H        -7.45994185761398    7.62521269470480   15.84907320301493
H        -6.46762577559110    9.48745146755230   14.53142384572206
H        -5.52868531453685    8.48210250206478   13.43176804900761

