63
CSD_code = UDURUJ | q = 0 | S = 0 | Stoichiometry = C22H34ClCrN3O2 | MND = 4
Cr       -3.63613516882487   -8.06875959761078   -6.72821058241943
Cl       -3.51762052497579  -10.04625759842025   -7.58516767338180
O        -2.77028182590490   -8.60536262593303   -2.71243184868576
O        -4.15231337541742   -5.77247958255706  -10.13318520693447
N        -3.08631457250975   -8.70011323334013   -4.92906987117117
N        -3.45146948820323   -6.29192196826976   -6.06292815862632
N        -4.16725969766664   -7.25358250683413   -8.45109692277657
C        -2.17138667497008   -9.79925828935377   -4.64672456726481
H        -2.61819847119005  -10.73141482121835   -5.01188683133965
C        -2.07424685594185   -9.78095253797741   -3.10622003791934
H        -2.56433541512419  -10.64615822796575   -2.64859622768142
H        -1.04987297905121   -9.71587798715993   -2.73507547835737
C        -3.32493956410066   -8.08100068992446   -3.82756108824438
C        -4.15667121858808   -6.83601290530123   -3.71692647359402
C        -3.69223678054512   -5.86840996488079   -4.78095731900749
C        -3.47314284539319   -4.51618621253582   -4.68424699787900
H        -3.58655355633960   -3.89484492270404   -3.81742247785708
C        -3.06764453524531   -4.07870812810752   -5.96519943303034
H        -2.81009842417968   -3.07212199070423   -6.23078221910278
C        -3.06636855354450   -5.18745503256755   -6.77462218435669
C        -2.66508527041249   -5.31291500159339   -8.22590072351008
C        -3.68663030448349   -6.15986268361160   -8.92502139683199
C        -5.04099472925215   -6.78739238635684  -10.57811539275316
H        -4.59744237477511   -7.28296964710135  -11.44792446088807
H        -5.98309099587804   -6.32066036714619  -10.87550819638217
C        -5.19059510082659   -7.73997092450600   -9.36911393679131
H        -4.95864618363751   -8.77622711629175   -9.63937467146215
C        -6.60411526942197   -7.68740869832496   -8.74714632363065
H        -7.31517179462275   -7.75745118797338   -9.57990128969245
C        -6.84039199556622   -8.87565098999445   -7.82035172393081
H        -6.76761410382268   -9.81104964142739   -8.37018704554892
H        -7.82760307887284   -8.81298162071562   -7.36900563481407
H        -6.08660483087725   -8.88741635976235   -7.02701544849589
C        -6.83426288997982   -6.36769355026457   -8.01178141103665
H        -6.14391022742372   -6.27496764236010   -7.17225857653642
H        -7.85196132653710   -6.32471319499352   -7.63129345707570
H        -6.68142920426467   -5.51755853824614   -8.67348628818100
C        -0.83452070543419   -9.58735575997273   -5.38500409540405
H        -1.08530830962468   -9.54967176951978   -6.45214925521048
C         0.10074220671765  -10.77120932336515   -5.15480381838334
H         0.37861447322567  -10.85934961820343   -4.10664516573419
H         1.00949832621624  -10.64334073965303   -5.73740538207378
H        -0.37693531676126  -11.69748181396040   -5.46422354524971
C        -0.17104481157774   -8.26519795558995   -5.00456870901637
H        -0.85440859235031   -7.43350739281131   -5.17425010990144
H         0.71577578938171   -8.10983864441581   -5.61421753838796
H         0.13273964312873   -8.25759365310309   -3.95988275296501
C        -5.63113432380167   -7.21461931298627   -3.96356816262956
H        -5.72881425680154   -7.70299703612769   -4.93486901927152
H        -6.24274975409306   -6.31546464494476   -3.95561396232397
H        -5.98413007644297   -7.89098139209552   -3.18778003737256
C        -4.01191700516690   -6.23076017239390   -2.31961630238413
H        -4.28228671052632   -6.96417553061689   -1.56436483934214
H        -4.66492816999298   -5.36805205112721   -2.22260576553619
H        -2.98600028070775   -5.91781242470962   -2.14585848368203
C        -2.57164240461441   -3.94111322408314   -8.89574229214645
H        -3.51213967800592   -3.40545826222161   -8.79782292975720
H        -2.34693028334944   -4.05537574188721   -9.95299238075641
H        -1.78371134050287   -3.35696372399934   -8.42887408311698
C        -1.30219268362123   -6.03041638482950   -8.32266436059750
H        -0.55738094140962   -5.46936553764590   -7.76344544211128
H        -0.98592297960031   -6.10334686243792   -9.36118017458051
H        -1.38463160589609   -7.03438265328071   -7.90105381489528

