49
CSD_code = UDURIU | q = 1 | S = 0 | Stoichiometry = C25H19N4Pd(1+) | MND = 4
Pd        7.76329495738079    2.51524807042351    7.42978067529582
N         7.35639328407740    3.11206033227202    5.55655236041145
N         6.05854529740429    3.84279476440531    7.85340279474952
N         7.99219523101319    1.90259839615104    9.29059364047467
N         9.28194847988238    4.24115470244165    8.57314531407155
C         7.98356894908456    2.78692580730355    4.43862653046198
H         8.80532429044743    2.08832886784831    4.51703418014778
C         7.63162754317737    3.29367027774162    3.18578787932304
H         8.18488940468631    2.98181292746158    2.31483580118686
C         6.58358170760336    4.17498064720457    3.08503035571197
H         6.27839477367005    4.58183288594894    2.13328490881951
C         5.90047870121098    4.54894465317930    4.25382022334939
C         6.32510122346024    3.99126935059746    5.48211493637043
C         5.63998728605053    4.37408529211499    6.68661104508494
C         4.56215388194874    5.28726655274658    6.62512898524098
C         3.92878767187426    5.63145564434453    7.83089404104466
H         3.09999043023649    6.32311072881686    7.81794869036976
C         4.37734243790433    5.08015641437715    9.00711754279780
H         3.91507636246262    5.32373740300016    9.95002449846963
C         5.45127474024120    4.18666982096402    8.97049330987749
H         5.82200329763182    3.74104827842594    9.88682906217853
C         4.80650517362366    5.46211037679373    4.22995651270554
H         4.50613251226647    5.86381882076133    3.27440627893023
C         4.16190992959280    5.81737793488559    5.36609007651563
H         3.33374954562533    6.50885843464167    5.34272461691234
C         9.23858344068717    1.17742811674945    6.89236090796040
H        10.05937065460418    1.73661412916127    6.42604429864756
H         8.84146237352853    0.44086401237952    6.18248253621767
H         9.64975900021688    0.63419331922070    7.74881691438890
C         7.33254288371916    0.81347130374682    9.65061855814942
H         6.73859035157999    0.32273777266212    8.88184940119727
C         7.39161429789595    0.28690902332991   10.94136224248032
H         6.83261442780454   -0.60258860672468   11.18260703555990
C         8.18327517434060    0.90768456968647   11.87804192961950
H         8.27291570786726    0.51829624470532   12.88068312397888
C         8.89272827241510    2.06535171601591   11.51900645137615
C         8.75620389224708    2.54959763627175   10.19522729266017
C         9.45883093701447    3.75103886960849    9.81513286055002
C        10.30250944045811    4.38362119125291   10.75778095376278
C        10.99012880358225    5.53912655947142   10.34789762273722
H        11.64710782882544    6.04050936298421   11.04306252629725
C        10.81171488944498    6.00897501218644    9.07036759361268
H        11.32561005496657    6.88985129053815    8.72084799279322
C         9.93613089233682    5.32433094883371    8.22026394884252
H         9.76066138254222    5.67809445854048    7.21198163207597
C         9.74153297429377    2.74384476139112   12.44042735885903
H         9.82735492479202    2.34348379309407   13.43896793439725
C        10.42774825976418    3.85061396866883   12.07218754333161
H        11.08015202252096    4.35593316136792   12.76804707998435

