78
CSD_code = UDUSAQ | q = 0 | S = 0 | Stoichiometry = C26H45CrN3O2Si | MND = 4
Cr        8.16465740747794   10.23108956626013   12.65524108577210
Si       10.65518597355216    8.52148367588553   13.21245620288322
O         8.83432015406181   11.31620958887915    8.75578287734017
O         5.91480683212580   10.37673899815047   16.11185829360209
N         8.65637773285261   10.29795887811012   10.75668026473690
N         6.64169360183000   11.30606011081993   12.20821173861242
N         7.46696082112895   10.32517926133972   14.49133159102043
C         8.92497542894688    9.22663859700681    9.80672686477168
H         9.75450027791528    8.61059685636702   10.16488615744349
C         9.29576465214859    9.99443509889402    8.52263276679920
H        10.38042184616479   10.02435492680899    8.36048931776952
H         8.81483382644991    9.60892215170856    7.62355385464247
C         8.52533817843072   11.38898756388166   10.07925626694747
C         8.00209548917775   12.67882183017095   10.63818904417663
C         6.70218551775769   12.35498470117595   11.33958059204922
C         5.48800602644564   13.00771375208640   11.32237924758391
H         5.22110737765004   13.87365003775024   10.74738064653599
C         4.65043428714606   12.32713894355145   12.23054934779039
H         3.63249425368699   12.57862756590732   12.45749269797415
C         5.39855119089680   11.29357801878182   12.75146877504033
C         5.08042468990430   10.25838898403635   13.80254390936206
C         6.21328823175406   10.30041644856963   14.79074093190213
C         7.14356047183736   10.42690545457031   16.81896985748045
H         7.23340291198756    9.52310340975350   17.43036675277064
H         7.12900158020355   11.29829616239817   17.47699053766077
C         8.22687902283510   10.49947846730283   15.72054273235650
H         8.93997511844037    9.67400270982009   15.81626239170765
C         9.01800965797282   11.82176670804273   15.67627542061768
H         9.69120279827191   11.73596832173073   14.81359949690226
C         8.10602360305423   13.02620019646518   15.44981504500060
H         7.48961365425608   12.87656573963007   14.56387527323140
H         8.70356508822539   13.92384442761194   15.30794237418467
H         7.44987840049781   13.18992508399321   16.30164979792421
C         9.86842254393109   11.99519024364715   16.93211271504907
H         9.24566690535144   12.09714536484242   17.81769252837794
H        10.48329647488279   12.88793541698799   16.84608264767693
H        10.52452233349715   11.13938068271834   17.07442934427721
C         7.67452709287462    8.33237989711567    9.65793912522119
H         7.44200074989924    7.96962355936684   10.66292654058801
C         6.45682730221061    9.10945980240969    9.16336550690995
H         6.22660977512816    9.92358283700753    9.84798425707316
H         5.59495162259901    8.44793824058212    9.12036187688882
H         6.61609657567492    9.52188230877341    8.16970029376847
C         7.97607370927989    7.13155282185251    8.76449798020487
H         7.11687195632659    6.46622576944609    8.73604834757589
H         8.82820665112027    6.57412677929006    9.14696255995549
H         8.19796169675681    7.44002010876630    7.74523300430825
C         9.01106328944883   13.22796496164253   11.66701207165919
H         9.16223338771658   12.48634057357721   12.45990028730295
H         8.61977468288629   14.14238433311152   12.10786328549423
H         9.96583237982067   13.44441663864330   11.19007283258690
C         7.79679095499021   13.69958915002758    9.51947707923133
H         8.73148114933040   13.87473631595419    8.99240990080979
H         7.44529908801291   14.63859523012271    9.93835868964049
H         7.06231439559363   13.33517072280404    8.80682551974925
C         3.75655554350859   10.56646953510778   14.50264512916650
H         2.94586037403755   10.52649774735537   13.78044377852094
H         3.78206508750231   11.55755774882587   14.94724009169531
H         3.56732184447875    9.83973042101064   15.28833378256064
C         5.01592723086437    8.85927170209277   13.16170964262924
H         4.23051818886391    8.84490270959024   12.41021150109303
H         4.79861347677554    8.10652924576637   13.91649987318930
H         5.97227754986325    8.63544997860700   12.68903662362067
C         8.78580766029784    8.28301090203668   13.05464625655542
H         8.38616624989421    7.88019782477101   13.99050309460227
H         8.60846267074404    7.51142967719357   12.30454252038655
C        11.41856803821779   10.18171324831382   12.59188819455295
H        11.13628878991129   10.40248742674387   11.56587640656583
H        12.50456188902815   10.13452444297264   12.62472069860900
H        11.11863989670543   11.02605036346413   13.20966867426031
C        11.60141540895147    7.16896255815457   12.22339878426426
H        11.35761069964511    6.17597092092774   12.58730691179229
H        12.67682768831909    7.29238273097902   12.30565322467679
H        11.35177780003489    7.19547217453846   11.16662433091334
C        11.29693755167209    8.36785046079464   15.02005915909878
H        12.34568653638278    8.08861077717284   15.03395807705226
H        10.75348483728457    7.60731054085622   15.57154662127259
H        11.20596416448682    9.30224286651861   15.56530807397941

