45
CSD_code = UDUVUK | q = 0 | S = 0 | Stoichiometry = C21H15S8Tc | MND = 6
Tc        4.37310310349163    7.91668977241188    3.22511267956740
S         3.71607275329909    6.21968618140731    1.70022140731689
S         5.60558888226782    6.35531870215729    4.33416981495834
S         5.72154904673557    4.63489904429696    3.24382716127810
S         5.03310323331309    9.62152792690403    4.73942217382073
S         5.82087377927412    8.79535588647507    1.70342106242989
S         7.00871918543149   10.20342629493796    2.57761514590405
S         2.44857116201901    9.27119435564783    2.39529720116854
S         2.35876450379523    7.56000119164025    4.65484050204927
C         4.60026846968971    4.81902727031738    1.93604821594534
C         6.34230499822251   10.48394802902185    4.15272007265101
C         1.52226639572125    8.63955429383500    3.65983307007562
C         4.43229886594012    3.68706786911416    1.04737092917173
C         4.95309397660705    2.42838302513126    1.36910962034095
H         5.47870558402667    2.29495183658206    2.30268429036590
C         4.78809687482044    1.36106316896342    0.51050579121632
H         5.19281327770844    0.39617137381639    0.77545034647444
C         4.10445501601429    1.52292660749140   -0.68486932684515
H         3.97847473520405    0.68609072726685   -1.35498293174757
C         3.58496081624189    2.76490414011738   -1.01599373016550
H         3.05498115837070    2.89894185826337   -1.94711283175572
C         3.74544853721168    3.83721367784879   -0.16315935957141
H         3.35022003137084    4.80535975527499   -0.42817613187251
C         6.94822093291686   11.53423096643380    4.94548328608923
C         8.13193753391997   12.15822453470616    4.53437786754824
H         8.60357794806831   11.84597909121704    3.61461028338838
C         8.70010935532905   13.15779153979194    5.29695209543727
H         9.61407529139326   13.62734915172311    4.96583965612989
C         8.10477085017827   13.55690546847841    6.48380153652961
H         8.55195276325238   14.33913746694230    7.07841693075941
C         6.93309512262752   12.94598600605366    6.90324928195251
H         6.46383401270021   13.25280997167734    7.82589998088093
C         6.35855616772789   11.94597771302769    6.14650119647500
H         5.44431881400272   11.47607898780968    6.47346028390014
C         0.13505771351791    8.98933605530802    3.86784771873265
C        -0.49240804916842    9.92048521081828    3.03463055563045
H         0.07417660062427   10.37713324505214    2.23698580442354
C        -1.81738259406445   10.24926830576115    3.23280729263036
H        -2.29377418531727   10.96885641252535    2.58368237409091
C        -2.53633703775548    9.65882048780767    4.26128716604936
H        -3.57366945644902    9.91761460508418    4.41306217645139
C        -1.92217507198097    8.73607020795020    5.09465863406955
H        -2.48074251008371    8.27582674643742    5.89601770491538
C        -0.59759057818314    8.40075816750940    4.90289873115787
H        -0.11363801000490    7.68155666892884    5.54667427002609

