103
CSD_code = UDUWEW | q = 0 | S = 0 | Stoichiometry = C45H34N10NiO10S3 | MND = 6
Ni       14.14559627967131    1.87378915868809   20.11626326542111
S        11.98092059505088   -0.07114897040572   21.12322009584608
S         7.63113193447211   -0.03193799754355    5.94973773233226
S         7.65437345354191    7.63630520151493   11.32175067018566
O        13.27308169124476    0.17016245391126   20.44471186113182
O        12.05149233053483   -1.18161241986610   22.03182734949840
O        11.38827034923546    1.14839131955799   21.66715989090125
O        12.22270671624343    3.21341346952608   20.31656692330982
H        11.61987501640554    3.25089036082074   19.57136952041929
H        11.84283244776001    2.53559869007504   20.93542415080067
O         8.83261099963300   -0.85781098175380    5.88040994356637
O         7.82563894822123    1.37855140605953    5.70704617946168
O         6.43774142183298   -0.63013089041160    5.38927438451856
O         9.01357677399542    8.02140244726310   10.97867835394251
O         6.77905911321851    7.31705227346302   10.21705772234545
O         7.05707537302360    8.38710397248260   12.41298657619773
N        13.83635892181007    1.47230750988047   17.98971325911767
N        15.91223838449893    0.59159128646279   19.48048026107794
N        15.06481300044185    3.55460374552120   20.00621237731371
N        14.37719630144562    2.18003220499873   22.19230931766077
N         8.20644459058375    0.74867055713565   12.92354888545973
N         9.01009860720198    0.51980145825278   15.15524167498022
N         8.23106049953146   -1.33912335788986   13.99481759513458
N         9.13822049303318   -1.57787895207137   16.11682635010549
H         9.07456967657083   -2.57406019280810   15.95587295921910
N         8.81284811594644    2.56931238051721   14.25953420461099
H         9.19305374799095    2.79141221818858   15.17414827802942
N         7.59857148160781   -1.18308294013183   11.78091030354740
H         7.35638987980755   -2.16115632146907   11.89054238184553
C        15.41131281346450   -0.23907588046637   18.54576677947161
C        14.30590563458098    0.22900952218247   17.75416491497062
C        12.82139840437412    1.90456847377872   17.26616960638583
H        12.50575196478994    2.92532686104018   17.44320979712594
C        16.89557730272120    0.15888879139532   20.23717765887871
H        17.28004930627527    0.85631507311977   20.97035656238873
C        17.45041237881934   -1.12152876523030   20.12205699118400
H        18.25291309343935   -1.42115776624812   20.77748625847463
C        16.95908809555463   -1.97635868259112   19.16651436380535
H        17.36202440747574   -2.97114920686433   19.04230270626408
C        15.90739567689950   -1.54415008066508   18.34056393740946
C        15.32040230293220   -2.36986305041745   17.33965807233227
H        15.71747057242517   -3.36497516559921   17.20187194679468
C        14.28265233399902   -1.92696589932139   16.59066957719127
H        13.83496637730078   -2.55849398948242   15.83710618300333
C        13.74272250444873   -0.62265708757029   16.77952233868988
C        12.65041520186516   -0.13699272471753   16.04334263709675
H        12.19618850660907   -0.75812201477672   15.28506982848029
C        12.18844937825776    1.13327485214753   16.28899844115462
C        15.05096615704176    4.21521406995422   21.18434588582181
C        14.66385020704809    3.48560554183443   22.35435799572563
C        15.41235078367507    4.21701616066534   18.92073238955630
C        13.96965483946385    1.47999960874950   23.22596640356630
H        13.73669793770514    0.43777005135141   23.05399845251963
C        13.82710664413561    2.04610265216404   24.50120004366032
H        13.47458047213801    1.43220480391606   25.31432877626176
C        14.14245958002822    3.36852154267740   24.69535414324803
H        14.05200492872777    3.82879399588823   25.66858442041283
C        14.58400498077214    4.13627202859781   23.60182842261597
C        14.92747492419094    5.51594706394316   23.68130532005702
H        14.86218276986105    6.00423167258961   24.64216591281429
C        15.31567183136067    6.20512044258641   22.57915324415040
H        15.56841622028379    7.25273851805925   22.64559625401110
C        15.38147849915813    5.58199217526829   21.29924996083532
C        15.74099425374374    6.26270487238269   20.12312999276495
H        15.99858951886683    7.31033458025098   20.16624056343479
C        15.75378194599188    5.57272307133030   18.93470846277966
H        16.02589674711884    6.06123061633007   18.01257839403822
C         8.01061226186377   -0.54292787289916   12.86588467391364
C         8.80136759391023   -0.75851296291973   15.10738616318255
C         8.65008888195225    1.26981264197932   14.07264059640937
C        10.98366095700771   -0.55203987764144   19.70966972591552
C        10.11714681967496    0.34430125139556   19.12097381813389
H         9.92404721078155    1.28144802399705   19.61848584072220
C         9.48739971547211    0.02416378854998   17.93046031231868
H         8.80446855365649    0.71218633804000   17.46283624665329
C         9.74349334174057   -1.20473171850239   17.33499414001945
C        10.59965274140693   -2.11796548324517   17.94642118875293
H        10.77802648514342   -3.08157822502029   17.49086731140623
C        11.22844850084468   -1.78074393595662   19.13069644756522
H        11.90697962994393   -2.45663305663615   19.62512360394214
C         8.52399480589749    3.69744993844829   13.47816519812756
C         8.95162776491807    4.92226448325160   13.99991415674855
H         9.49142974051681    4.94726453084982   14.93732714983444
C         8.67364898777096    6.08880425782629   13.31846943222682
H         8.97234107372368    7.05710056532213   13.68389571451453
C         7.97284525542601    6.02406604613959   12.13279281524013
C         7.55457648742172    4.82508758729074   11.60002023415859
H         7.01105585221525    4.83156696131250   10.66889640221003
C         7.82558822126395    3.64416043950027   12.27566239174337
H         7.48782618786006    2.69663687755276   11.89082923809330
C         7.49419377414972   -0.75188359176963   10.43778705369785
C         8.07305349162418    0.42307664495941    9.97161910243156
H         8.57573065652546    1.08634295281321   10.65521257555140
C         8.02563520949510    0.70198090686912    8.61464576256590
H         8.47856154608661    1.59009875245975    8.20471855421799
C         7.39866577724071   -0.17697209834570    7.75886179999781
C         6.80683241401881   -1.33581528279892    8.21523798971940
H         6.33658255579971   -1.98805651109603    7.49790404120528
C         6.84926813786773   -1.62791111229116    9.56414437774703
H         6.40215900040215   -2.53790432329569    9.94239151553815
H        11.35448751772187    1.53158841765992   15.73413629034214
H        15.43227192708270    3.65626686601778   17.99678424711328
H         8.04472427848455   -2.33145803794511   13.96416777975624

