42
CSD_code = UDUXUN | q = 1 | S = 0 | Stoichiometry = C17H13N4NiO7(1+) | MND = 5
Ni        2.33044796240495    3.13753760331102    4.21830652428964
N         3.93100819555721    2.56158159074460    3.34374951334562
N         1.94036143585663    3.92356520077520    2.52677445789092
N         4.04389464397659    0.79835543463763    7.81595224042335
N        -0.04993754658158    1.19524674534723   10.44545700143704
O         2.74038901145741    2.15801648280166    5.74099364389328
O         4.37802027224731   -0.09633187381137    8.55023487071866
O         4.76899785438606    1.34827669509039    7.01122846284299
O         0.53414087032362    0.57572950958656   11.29835183360651
O        -1.17975196814348    1.61671829771526   10.51373126157521
O         0.62409145191789    3.52526100832433    4.89174811146919
O         3.32426638935943    4.94440852072112    5.32470923133443
H         3.99960258939735    4.65814825655807    5.94851773030650
H         3.61745774788000    5.77424515576777    4.93927902324385
C         2.09724543874765    1.98630178811760    6.81334067294424
C         2.67905734613125    1.26164511510468    7.91191693321815
C         1.98097969636487    0.99956351570385    9.06542232064304
H         2.44779933556753    0.44041730262383    9.86722597499281
C         0.67281075883522    1.46612306368557    9.21346303959071
C         0.06740307089041    2.19339684470249    8.21221775765238
H        -0.94017623030043    2.55507682985303    8.36292467031280
C         0.74947229003767    2.46206472239395    7.02166101361900
C         0.12771789797034    3.20702885472036    5.97841722822418
H        -0.90719781432838    3.52396879534676    6.16802764182160
C         4.93518471356497    1.89679575397595    3.90318740043246
H         4.86870260118766    1.69780924010862    4.96696888077709
C         6.03617701491403    1.46886793414651    3.17320535398224
H         6.82662299463366    0.93143022249716    3.67080826744823
C         6.09014626949423    1.74038470375895    1.81646885366098
H         6.92617098875050    1.41231029324638    1.21867169165259
C         5.05014064028522    2.45004655873878    1.23576543381267
H         5.07202057403975    2.68333721067831    0.18411808913330
C         3.98010114550671    2.85458167473094    2.02538976535489
C         2.83569668694283    3.63962517909502    1.55604008508285
C         2.65691228035193    4.09302947874453    0.25332198623464
H         3.37649641032469    3.85238379243731   -0.51148874173512
C         1.54198820984724    4.85657279983023   -0.05151345819392
H         1.38307059749165    5.21356958823491   -1.05699258118908
C         0.64036327578829    5.15428438233078    0.95799889167481
H        -0.23592944138926    5.75138856379253    0.76575383300594
C         0.87809639121594    4.66557059440699    2.23353079182214
H         0.19203794708346    4.87606656942362    3.04321429764629

