59
CSD_code = UDUYOJ | q = 0 | S = 0 | Stoichiometry = C30H20FeN6S2 | MND = 6
Fe       -0.54611899288214    5.19545531206161    4.41800411980928
S         0.96652938447541    1.99914390452237    1.58472944691326
N        -1.57382103261025    6.42883342784698    5.36178168822644
N         0.50598153223470    5.16938265322234    6.07427553322020
N         0.45005580075865    3.81404314546928    3.59136915857529
C        -2.52291029484818    7.24315391050438    4.89469245987036
C        -3.38830175363169    7.94012709148790    5.70718485755552
C        -3.27791841297709    7.79406310268431    7.08990729157434
C        -2.28327526975686    6.98047744776344    7.58837478886100
C        -1.43146585550097    6.31308298392172    6.70583733552410
C        -0.29324443238842    5.50765546128544    7.09571788371661
C        -0.02893158435202    5.11320874830649    8.42299197340023
C         1.07608072689102    4.36027186941976    8.68912389851390
C         1.98747321232301    4.07637012111912    7.64836284207313
C         3.18048351957802    3.36440743812637    7.86502809011510
C         4.05323269201191    3.13565734304884    6.83543467254016
C         3.77422052434375    3.63705552831732    5.55752232640372
C         2.61767301962473    4.32835682121884    5.31201648567643
C         1.67374135179141    4.53449660710891    6.33728692474120
C         0.63237588377472    3.02118660561379    2.74226985619336
H        -2.58676121382514    7.31669113115013    3.81884296099942
H        -4.14239285632685    8.57798611122529    5.27514572830794
H        -3.95172399285224    8.31235231080845    7.75382644938140
H        -2.16035112791168    6.85957902993874    8.65216877411403
H        -0.72903666950801    5.36014805950073    9.20384553454218
H         1.27118774639214    3.98519808118143    9.68252608397692
H         3.39430815279885    3.00853729325184    8.86232720358566
H         4.96487185921785    2.58300644626700    7.00566345163202
H         4.48257530809773    3.47765426797601    4.75866404620061
H         2.40458295685051    4.71636778852593    4.33124269533996
S        -2.04634296258499    1.98924910897052    7.24601690829621
N         0.48110068617247    6.42868546979649    3.47328821963658
N        -1.59855919529706    5.16837466574489    2.76250483638305
N        -1.54081414735677    3.81331632160532    5.24502789065821
C         1.43065453855454    7.24286851226021    3.93954986006138
C         2.29635143219900    7.93863442618544    3.12632349011521
C         2.18571930418991    7.79137423964313    1.74376048825558
C         1.19059449959126    6.97786133705586    1.24612560439268
C         0.33854917904674    6.31172143589677    2.12936648999028
C        -0.80005650844921    5.50639075746648    1.74039802673086
C        -1.06560873060321    5.11197916368652    0.41335543702394
C        -2.17141935744161    4.35990613482507    0.14807574635141
C        -3.08229888780033    4.07680662421043    1.18951921486211
C        -4.27633722385535    3.36632454960721    0.97362550710682
C        -5.14854058547923    3.13834253687924    2.00385109006401
C        -4.86776668703761    3.63883572420834    3.28173938107354
C        -3.71017518529721    4.32866143349595    3.52650373317959
C        -2.76700648260302    4.53432925495126    2.50043614324584
C        -1.71904249714360    3.01660213337618    6.09138687711417
H         1.49466754626217    7.31725826986325    5.01532784653194
H         3.05083241223059    8.57648241135027    3.55769523853746
H         2.85977346849410    8.30863325927924    1.07929628278433
H         1.06758784380253    6.85593996828620    0.18246301124268
H        -0.36593063776228    5.35836409328562   -0.36804686068957
H        -2.36758321373260    3.98499626033471   -0.84517936573748
H        -4.49146470100473    3.01106976865488   -0.02361991263128
H        -6.06105517040366    2.58696747926492    1.83417382648771
H        -5.57558422131362    3.47993849192804    4.08117869776089
H        -3.49576469716448    4.71593612500615    4.50729172958432

