53
CSD_code = UFAGAJ | q = 0 | S = 0 | Stoichiometry = C16H30NiO6 | MND = 6
Ni       -0.00000221894548   -0.00000853407465    0.00002663821890
O        -0.89598744973143    1.64227442969126    0.13289654542727
O        -1.86242644093499   -0.83254267445711    1.42495313045588
O         1.07309157783555    0.47017076086900    1.47150827195006
C        -1.68821900902058    3.74954433857633    0.78844092803942
C        -0.79795332370143    2.54136518348580    1.00898766181822
C         0.05984287187713    2.51457314458565    2.12127832461625
C         0.96294133950594    1.44956149560647    2.25815187227502
C         1.93966182873055    1.45027302742399    3.41867106247768
C         0.04705507571913    3.63703473280928    3.12696386166133
C        -1.80226904517165   -2.18133444778766    1.85670212679481
C        -0.62165010352698   -2.31891759634609    2.80365211380496
H        -1.10943707280304    4.66887717264805    0.82228040220670
H        -2.45895290217914    3.79188115468624    1.55516703158938
H        -2.16636417490357    3.65506150111778   -0.18292269894292
H        -2.54683079026207   -0.73542080341476    0.75146752812387
H         2.49582989157945    2.38351333235146    3.45718511174386
H         1.40479982849664    1.32335341911679    4.35740846798106
H         2.62855704706415    0.61877599729472    3.29444756170139
H         0.76644433027765    4.41483817959818    2.86194340614803
H        -0.93538602823128    4.09525493822346    3.18609839406592
H         0.29924988424826    3.27200120336684    4.11835778532808
H        -1.67078098654541   -2.85534012169658    0.99875407669330
H        -2.74205138901497   -2.44455838014671    2.36782594008975
H        -0.77768327547326   -1.69795761704052    3.68180356033982
H         0.27240207347507   -1.97389484517642    2.28858744969124
H        -0.49649257339780   -3.35432332606958    3.10880191683922
O         0.89601964666287   -1.64226797252936   -0.13286097745906
C         0.79800341055455   -2.54135711073099   -1.00895549568100
C         1.68827998724594   -3.74952817481476   -0.78840645927319
H         1.10950971530623   -4.66886803489670   -0.82225229445162
H         2.45901967851876   -3.79185399428024   -1.55512747820606
H         2.16641894895157   -3.65504360092520    0.18295986958834
C        -0.05978787254382   -2.51457112622258   -2.12124889444535
C        -0.96289804400123   -1.44956919534919   -2.25812405746691
O        -1.07307039196025   -0.47018269530173   -1.47147971379083
O         1.86236782068206    0.83263135561364   -1.42488778966427
C         1.80215160149968    2.18134695173416   -1.85678556323482
C         0.62150909991620    2.31888940097921   -2.80369751709737
H         0.77747084727830    1.69787127186482   -3.68179513583645
H        -0.27248549907480    1.97391260135137   -2.28854350617268
H         0.49632965427043    3.35425857376383   -3.10894216764349
H         1.67081926819285    2.85539441486505   -0.99892965541477
H         2.74183438886826    2.44447825443227   -2.36800826109181
H         2.54685946210702    0.73553848301246   -0.75151412562368
C        -1.93961864229825   -1.45029553449021   -3.41864198087189
H        -2.49577037472666   -2.38354513761629   -3.45715933202656
H        -1.40475612950681   -1.32336360189381   -4.35737674750751
H        -2.62852738741881   -0.61880985587402   -3.29441682278451
C        -0.04698455427191   -3.63703286965507   -3.12693411218678
H        -0.76636777583924   -4.41484366453657   -2.86191779161158
H         0.93546156160532   -4.09524348131673   -3.18606345531521
H        -0.29917738498610   -3.27200092242386   -4.11832900586939

