75
CSD_code = UFAHAN | q = 0 | S = 0 | Stoichiometry = C25H44ClIrN2P2 | MND = 4
Ir        5.11725622667103   15.15628074057338   10.35792870072143
Cl        5.20688502699452   15.23481167372496   12.68501132782734
P         3.60887245169628   16.83317901279267   10.03629036516880
C         5.00785983577050   15.07233624013224    8.44570248825291
P         6.72557846790510   13.57892047572901   10.01466936470508
N         4.18432900461586   15.81318953608397    7.63962542562601
N         5.76838979665660   14.29595220201547    7.61427270931829
C         3.16648759371371   16.64897913729893    8.20912898830795
H         2.19430165064540   16.15091532971598    8.11351551071443
H         3.11155711520518   17.60726970486316    7.68496998207658
C         6.68509005687043   13.32413257333257    8.13812165891360
H         7.67200200935770   13.45016576220640    7.68248694331679
H         6.32644500270559   12.31849959033228    7.89273670193136
C         4.40974731693943   15.50707787545683    6.32261478454224
C         3.84485900771649   15.96723023779069    5.14627712535958
H         3.06038700740757   16.70820488594638    5.15121150736061
C         4.32423357989332   15.43735312738175    3.95588532611496
H         3.90381608313859   15.77773845074086    3.02175783530117
C         5.32806651900836   14.47953665134743    3.93999403065332
H         5.67230350235536   14.09023794491158    2.99388029284014
C         5.89929653302324   14.00735058097833    5.11401211135372
H         6.67687741592135   13.25936538317327    5.09536815604502
C         5.43201424395368   14.53175524840015    6.30611672681355
C         4.34445463281496   18.57807222953285   10.07332654917047
C         5.47251603798748   18.55527729251692    9.03560126167113
H         5.09429232548343   18.55468557701696    8.01591009352264
H         6.08731236374581   17.66545849324096    9.17717812632097
H         6.10666217653858   19.43233558703411    9.15555456428271
C         3.38458503990030   19.72280170168483    9.76684959496623
H         2.67601062112747   19.87048769144415   10.57773169777800
H         2.83363113082014   19.55286392103638    8.84348818935162
H         3.95222263993266   20.64635902972566    9.65288084721925
C         4.97763787964480   18.76577129679533   11.45287291150071
H         5.64795612499097   19.62434503999536   11.44874451018621
H         5.55158337587167   17.88058452471859   11.72521142006593
H         4.22806611840278   18.92785674430928   12.22145075199948
C         1.90116427833057   16.76891111900683   10.84347749968611
C         0.77595424530445   17.53759220143548   10.15377216636330
H        -0.15390954910198   17.35567615157429   10.69266391805340
H         0.62991656262745   17.21395599605418    9.12593208025255
H         0.95534649433503   18.60777886306836   10.15556582876957
C         2.04725782465730   17.22492790058441   12.29439125513601
H         2.12601427665419   18.30725312696265   12.36601588799341
H         2.93260562436725   16.77286827356137   12.74009485038370
H         1.17882816232480   16.91395168888100   12.87407753484008
C         1.58104838842049   15.26965338330960   10.84488288511218
H         0.63359781408271   15.08256344351121   11.34791563973749
H         2.36467559754382   14.73029552513982   11.37675344592071
H         1.51481361007077   14.86965065561172    9.83381134514770
C         8.51545422754517   14.13177027134919   10.28582528428813
C         8.60576881907342   15.45897140374716    9.52394074029112
H         9.56144373152682   15.94211949827978    9.72160051290093
H         7.80916639982079   16.12266958260388    9.86330225074284
H         8.51112971532437   15.32789670662041    8.44807466770870
C         9.60279133741798   13.17278878323459    9.80992614659653
H        10.56110338884654   13.69181652369261    9.80046117424470
H         9.41338970691277   12.80045998455946    8.80517228989305
H         9.69689825073446   12.32409848519680   10.48230710466096
C         8.69209477352306   14.44037906766320   11.77346732696651
H         8.84050911067443   13.53740938603161   12.35789458099323
H         7.81461580400023   14.95677583209199   12.16041450206521
H         9.56001472418705   15.08122266956128   11.92304934510680
C         6.41835762247907   11.82021250968590   10.63802421830443
C         7.22160357250367   10.69423552757306    9.99172168596359
H         6.87609384744867    9.74151365917182   10.39299677800120
H         8.28124787356005   10.78037867605182   10.21030155320291
H         7.09501337011212   10.66257553870803    8.91204303893588
C         6.63212461119905   11.81720542530780   12.15151914464313
H         6.22103631514390   12.72404459016622   12.59358513954907
H         7.68770354492345   11.75084418386807   12.40236066591713
H         6.12872344287215   10.96160652531111   12.59998280217773
C         4.92302220320606   11.61867521710235   10.36623840821031
H         4.58863288179705   10.66293278184948   10.76682597814892
H         4.69788410809146   11.63827252565939    9.30087998689251
H         4.35437737203202   12.41356482221275   10.85085175490551

