86
CSD_code = UFAHOY | q = 0 | S = 0 | Stoichiometry = C35H47O3Re | MND = 8
Re       -1.40709053307336    9.08097431606951    1.57562422189235
O        -4.12426143163363    8.07013207971843    2.64029294547606
O         0.27897058601173    7.22005346966208    3.37252330504707
O        -1.39798918092618    7.17944622650092   -0.85783433971098
C         3.50678715319927    9.73547702352971    3.45267066478289
H         3.08019896284966    8.90225014203623    4.01724020479024
H         4.41509261882035    9.38140545799642    2.96384290549069
C         2.50821303123404   10.16079500486973    2.38120784142877
H         2.98794756319692   10.84149138546718    1.66995983527062
H         2.19189960053706    9.27539431448006    1.81943664914514
C         1.30613758561277   10.82838771069971    2.98921554905394
C         1.36072286967953   11.32872371554915    4.23663525812650
H         0.48242745818270   11.78267826843662    4.67649830393757
C         2.53118286399351   11.28621224367639    5.08114933504114
C         2.43216268467730   11.59984331203856    6.37632335458628
H         1.47115369301090   11.89214067853572    6.78193427747818
C         3.54439074952174   11.50917344962641    7.36067374400637
H         3.34715152586192   10.64932382781112    8.01290975201771
H         3.54043159241024   12.39498808171540    8.00168009133287
C         4.91399773217670   11.34427918466172    6.70111728833930
H         5.24348782807404   12.32386803101726    6.34743541170785
C         4.82048208059256   10.36623108440122    5.51766779437443
H         4.40359017086366    9.42974463944873    5.91019822992490
C         3.83604239280204   10.87283444689384    4.43467684610192
C         6.21350133346538   10.05976741744692    4.95407898614899
H         6.62245456597009   10.95032207018654    4.47928627347065
H         6.13268667078329    9.28628765988635    4.18848133280607
C         7.20332233318451    9.56929002178672    6.01450169824409
H         6.85144377376266    8.61905499657073    6.42416012792017
H         8.16003890944514    9.38499165336513    5.52717731087384
C         7.33687152979764   10.58573914526339    7.14971599379226
C         5.91664598498383   10.79394195237997    7.70922423062988
H         5.55281381930178    9.80102102967754    8.00425503361969
C         6.14968831925845   11.58664467605133    8.99056901421765
H         5.32627456065723   11.48247380392820    9.69605616118894
H         6.26489469884721   12.64767699473842    8.76724472040004
C         7.45269066192989   10.98491382616610    9.54504318425052
H         7.24660114515245   10.39580504286284   10.43804008613720
H         8.15414521159349   11.77167363044667    9.82362598366743
C         8.05840603720989   10.09188511518860    8.43071535266058
H         7.74161862631782    9.05670092790919    8.60233933080829
C         7.97704902750057   11.88221907637449    6.64824225146274
H         8.91664720529394   11.66655868253727    6.14577599255987
H         8.18148992731375   12.55909171928078    7.47171301858772
H         7.33526065462673   12.39857513250742    5.94154253840380
C         4.38812435463015   12.08322107652941    3.66548199663217
H         5.15365661084957   11.77789933665988    2.95582699546989
H         4.81343168003480   12.81489611543070    4.34693061523373
H         3.58841718483146   12.57707520311172    3.11815309687495
C         9.59682117070267   10.10294697948713    8.45882143558460
H         9.94578960708432   11.13551998293361    8.35947848739209
C        10.20236372726400    9.26919900764732    7.33006015203041
H        10.08141256014234    9.75318874017224    6.36610619862523
H         9.73272945660247    8.28897059795654    7.28921925102035
H        11.26791556013439    9.12901428981955    7.49247272590396
C        10.09622849527955    9.56003904436015    9.80938580019948
H         9.46525541419563    9.93539595069474   10.61468865838066
H        10.00971854507772    8.47091221970188    9.80616976363614
C        11.53877273265951    9.95339382271342   10.12518240968091
H        11.61715911401815   11.04346059602390   10.14511139419107
H        12.20404143886300    9.58751820340389    9.34335145907082
C        11.98338200397001    9.39306145726460   11.47467167342461
H        11.26819645044591    9.71516846050544   12.23618331081925
H        11.95453120349349    8.30131088353622   11.43929229489441
C        13.38474373115854    9.84353729064464   11.90159389966104
H        13.43141945027771   10.93681938240437   11.83570461342854
C        14.46871503290408    9.25628413121890   11.00062723361193
H        14.41531047613362    8.16940653840831   11.00450462581829
H        15.45424548960892    9.55145250459923   11.35435225506753
H        14.36083448925498    9.60426905660079    9.97685322113092
C        13.64170613215521    9.43611868414793   13.35167628941620
H        14.62524146982338    9.76956783576461   13.67518240974254
H        13.59644508905087    8.35369714085647   13.45331498930679
H        12.89746522335695    9.87374166163331   14.01342187696197
C         0.10013637176757   10.89736571942222    2.18154173544023
C         0.03572088733212   10.74766219272973    0.76091226495152
H         0.88923714572340   10.66123249917868    0.10494779745695
C        -1.28568305792454   11.05339875614215    0.33061407920263
H        -1.59260466856909   11.20705628742629   -0.69411120370371
C        -2.06426360880354   11.32865632248749    1.48043813745922
H        -3.07547892917598   11.71014488876751    1.48422145938185
C        -1.22763459601883   11.19571598113106    2.62082382014796
H        -1.50749929051320   11.47849274326489    3.62421133718355
C        -3.10151359640489    8.39575169046356    2.23969058928346
C        -0.38736418656544    7.85514550512533    2.69051879006325
C        -1.41550095891792    7.84450855025979    0.07550396849264

