77
CSD_code = UFAHUH | q = 0 | S = 0 | Stoichiometry = C25H45Cl2IrN2P2 | MND = 6
Ir        1.16531306103651    9.56558618131218    9.57028363050595
Cl        1.84628744414810   11.43482172804866   10.83596944958858
Cl        3.32011075657795    8.30687287199783    9.74055691975805
P         1.94512916788480   10.18354961931988    7.44692068773567
P         0.11757299899477    8.34915101703813   11.31024961557620
C         0.75761033353429    7.93219666356028    8.58541223026109
N         1.33614156034882    7.57730639990027    7.42401908412971
N         0.04385445799911    6.88858368889859    9.04994237235391
C         2.25876118574621    8.46230367256350    6.76354767061430
H         2.14280456330935    8.40411013642233    5.67735891936838
H         3.28213460161295    8.18192053518847    7.03908753534091
C        -0.71117271197300    7.00551878304914   10.26860707035093
H        -0.74669779539242    6.04580257615583   10.78789216861351
H        -1.73556774427032    7.31899194839398   10.03232984057950
C         0.57896008466949   10.80283994807760    6.26522892804782
C        -0.00256692658020   12.10000573265006    6.83238773912008
H         0.63126039656774   12.95509310891091    6.62419926810034
H        -0.12416658412460   12.01930513244405    7.91076359605493
H        -0.97912943825569   12.29360553063769    6.39142973284494
C         1.02640112472538   11.02325214389815    4.82107084251661
H         0.15155621873954   11.26309462729658    4.21673441726946
H         1.48398064898273   10.13163214510243    4.39646157816012
H         1.71879008395672   11.85459185129236    4.73178626622950
C        -0.53566007693656    9.75024382882821    6.25257581583674
H        -1.38200718465682   10.13193607869766    5.68272010283740
H        -0.87854013598036    9.54015658329183    7.26286033638018
H        -0.21743356113365    8.82167808389415    5.78360911147254
C         3.55883616593638   11.11682419689074    7.11096471633574
C         3.25463786417394   12.61506859245439    7.15620502286536
H         2.64966442215957   12.84083399449987    8.03406383046681
H         2.74294659170959   12.96048281355478    6.26191030451823
H         4.18683853122579   13.17223085234570    7.23965732531811
C         4.24764617003433   10.72352735343242    5.80365032398825
H         5.15170754431354   11.32291058231632    5.69934611611251
H         3.63033826261223   10.89987587630609    4.92938865368517
H         4.54727354249922    9.67787316405148    5.81557332320960
C         4.50748687039711   10.81688273053164    8.27151665082455
H         5.41414055088452   11.41171287977244    8.16689661590120
H         4.79394689931161    9.76905781383652    8.30104398962971
H         4.04176437905702   11.07379114643240    9.22159033362651
C         1.16632742419190    7.33566462374694   12.52817689929900
C         2.24150389303475    8.29598016229138   13.03961747892090
H         1.80648997674401    9.16967017569566   13.51912395087914
H         2.85923914646599    8.64044390738969   12.21438615215123
H         2.88698713290324    7.79132567644569   13.75716739437421
C         1.83537491687725    6.18902476361512   11.76341690971300
H         2.63644752714227    5.77904910119879   12.37675890404232
H         2.28602468111631    6.54034093023667   10.83903651822635
H         1.14285082004017    5.37828334829694   11.54240854901266
C         0.40943992266603    6.72440781566749   13.70612913235845
H        -0.42315742005758    6.10704519017097   13.37435682194087
H         0.05171646264860    7.48080162783696   14.39842675000714
H         1.09838252457505    6.08232931941235   14.25514378031533
C        -1.36845789544573    9.12960581506307   12.20249768293753
C        -0.80669722256864   10.09935308108747   13.24262034729730
H        -1.60002465052687   10.74521681468927   13.61595481518051
H        -0.04366392207003   10.72874218663399   12.78324073331869
H        -0.37138231167138    9.58015283515069   14.09263002969131
C        -2.14486909021459    9.95914844580998   11.17568500237100
H        -3.02953569087138   10.38373239920806   11.64768558135401
H        -2.46898395340925    9.36444099321432   10.32384296297051
H        -1.53216691796786   10.77919012562624   10.81443087943308
C        -2.34559188506384    8.13600339183557   12.83626579486031
H        -1.95280729432009    7.68432770818453   13.73868155772631
H        -2.62822482061147    7.34680445099093   12.14320424830720
H        -3.25333251716159    8.67093404358492   13.11400640468336
C         1.02039410658944    6.26892126493979    7.14120052202602
C         1.36648203507243    5.42817696275584    6.09693107861020
H         2.01975426393869    5.75663919713095    5.30378623884462
C         0.84939512948625    4.14443623712076    6.11605578214845
H         1.10233831724693    3.46222823668340    5.31917160772942
C         0.01365730154489    3.71059124231651    7.14047695878944
H        -0.36665897423791    2.70099875423544    7.11721741931693
C        -0.33845701457218    4.54179190760937    8.18988273216837
H        -0.98589814756512    4.19803233096499    8.98152312078495
C         0.17493211463527    5.82739861648855    8.18283236945256
H        -0.12808229240369   10.30714370339840    9.33681475263977

