99
CSD_code = UFANUN | q = 0 | S = 0 | Stoichiometry = C39H55HfN3Si | MND = 8
Hf        7.05507512727518   10.95256311873283   -3.56230038402831
Si        7.54165246904359   11.01441278890058   -0.59187488754785
N         8.47571321031976   10.99713366606000   -2.04546080843838
N         7.30639546444494   12.30480213089614   -5.06047084174920
N         7.42229387826148    9.58026708993876   -5.00211433325174
C         8.83312035117341    9.56675094088304   -7.11169090719820
H         9.04747428249503    8.55103548593099   -6.77497056804704
H         8.31298060505745    9.48981668265765   -8.07511029918614
C        10.11525430589234   10.34258649560861   -7.33079877946544
C        10.06030487280081   11.67114729843369   -7.35921387235336
C         8.71827509391490   12.34779902506449   -7.17185532565534
H         8.19002555800328   12.33297995080882   -8.13281729808960
H         8.84831790554561   13.39237083649145   -6.88388128812559
C         7.91946997389324   11.62220616407448   -6.11937378938002
C         7.97312581681974   10.27054538046463   -6.09262783940119
C        11.33721746441032    9.49209876698943   -7.49527766863393
H        11.56277483870743    8.98293683818933   -6.55781490819832
H        12.20913772364999   10.06780716617812   -7.78912232601262
H        11.15708699759279    8.72860380636034   -8.25184114194611
C        11.20945788063383   12.61084682270072   -7.55944308107482
H        11.38986320209153   13.17501554211751   -6.64380668410014
H        10.97050276205665   13.32531390862486   -8.34696240539788
H        12.12629260528560   12.09615941337088   -7.82901582291538
C         5.35296630519743   12.04261449480107   -2.25555793354520
C         5.26982506697973   13.46660873338390   -1.77788024809816
H         6.05152534188765   13.69483221496042   -1.06188804038096
H         4.30876992392940   13.62254806283575   -1.27995471375632
H         5.32468121836793   14.17566124188249   -2.60313786467151
C         4.58737718450738   11.54428347680561   -3.34288305558416
C         3.65352549968973   12.36002431842029   -4.19287387312217
H         4.05539969331472   13.35309656886104   -4.38737410967973
H         2.69383541872342   12.48068503586270   -3.68403380186912
H         3.46309927591706   11.87626737758498   -5.14917932506734
C         4.63747522099131   10.12114527095586   -3.29865989747304
C         3.72736980116222    9.18719960399727   -4.04635334409381
H         4.22679789358048    8.25453415889332   -4.30416472341896
H         3.35390629280117    9.64177340008830   -4.96085101822391
H         2.86457773594178    8.94063104523253   -3.42243016027488
C         5.44467314201904    9.74781623249109   -2.19353013478912
C         5.49245853392755    8.34457013488864   -1.65553944289661
H         6.31044042250751    8.21034824647269   -0.95646731351430
H         5.58283219138169    7.61115220961515   -2.45601569852135
H         4.56186558468465    8.13024011824445   -1.12268561181951
C         5.87927082949415   10.93200154147452   -1.51456853244522
C         7.81621416167529    9.57049821416518    0.64656725108823
H         6.90979759661076    9.35097144169427    1.20075799210493
H         8.57460198266265    9.84681139470369    1.37238572116087
H         8.14846002603644    8.65529657890978    0.16804019935930
C         7.71684619198016   12.55486822493281    0.54615281066712
H         6.80055593456486   12.74393761573542    1.09549870683652
H         7.97892424740546   13.45838692161612    0.00577071016866
H         8.49756995652992   12.38351127705418    1.28048126804578
C         9.93059869875536   11.03136158654819   -2.15772500748873
C        10.59480887184774    9.82071874755190   -1.47585315892582
H        11.67218024012680    9.85852890985058   -1.62064892625713
H        10.22302500932152    8.88680664902691   -1.88069089397506
H        10.38712565576160    9.84188157788135   -0.41062447381385
C        10.53729874092772   12.28606925879678   -1.50280093947860
H        11.61539594404914   12.29484533749737   -1.64673147377597
H        10.32980078657238   12.27887506338879   -0.43730891644418
H        10.12345660473943   13.19292571597956   -1.92759725858363
C        10.27896031746362   11.02190009140758   -3.65657155853840
H        11.35757193573529   11.05245935767214   -3.80054504520157
H         9.83783898444676   11.88811769375446   -4.15320150195956
H         9.89102222068399   10.11741845179839   -4.12778349952067
C         6.79979381636322   13.59147874472134   -5.24957329569732
C         7.15815524719988   14.59526182060488   -4.32402650407749
C         8.14706153940131   14.27849913379143   -3.23958446975871
H         8.09817580115295   15.02444347277171   -2.44858004464256
H         9.15426138039733   14.29997047031933   -3.66265154240231
H         7.96613050413974   13.28045039240661   -2.81811968827328
C         6.65393789406119   15.87781319679364   -4.44793380012842
H         6.94282342251830   16.63057354747700   -3.72758449114207
C         5.80180415523108   16.20883107775324   -5.48723161125627
H         5.41396968153968   17.21191173891259   -5.57905161736128
C         5.45614315728443   15.23632387989874   -6.40560498026280
H         4.78708802895153   15.48124892423705   -7.21885991783104
C         5.93334877286595   13.93702013529608   -6.30713119236036
C         5.46707959744612   12.93500422973795   -7.32244483877512
H         5.67237717987010   11.92227738865236   -6.99113862982094
H         5.96912042498824   13.09273295735583   -8.27721377547553
H         4.39673101271737   13.04659513278235   -7.49070577488070
C         6.95250934290086    8.27814335336688   -5.18005619926353
C         7.38230957360742    7.27014690769553   -4.29460195653213
C         8.36585396096326    7.61184586220602   -3.21323138419236
H         8.14515987693814    8.59898167409979   -2.78673855107170
H         9.37249154013506    7.63242645867088   -3.63681226503498
H         8.34653353262759    6.86030124665241   -2.42639174040778
C         6.93664434856027    5.96897753627958   -4.45228853215385
H         7.28007478289209    5.20673313868628   -3.76673134861745
C         6.07384260897233    5.63304963134529   -5.48104610713156
H         5.73906620011864    4.61402230424678   -5.60201693067619
C         5.63394144330711    6.62057868870781   -6.34352915814695
H         4.93856263056529    6.37070825145767   -7.13280245753740
C         6.04784968147358    7.93630604641377   -6.20631933804677
C         5.46718476614165    8.99237422707418   -7.09818197968889
H         5.31918297986704    9.91004166185465   -6.52878569393536
H         4.51027848938211    8.66237894209591   -7.49777934759478
H         6.12347355114194    9.21692490904102   -7.93754873800538

