83
CSD_code = UFAPUP | q = 0 | S = 0 | Stoichiometry = C27H51HfN3Si | MND = 10
Hf        8.21383367327446    9.03119414956526   19.44397705885287
Si       10.12564876208605   11.36671223291389   19.48594332018358
N         9.87659542220103    9.93203191196499   18.56676084230420
N         8.40652233747750    6.51209109241097   18.67596141126344
N         6.67890138524531    9.36486790430552   17.97501308334259
C         9.19416090563734    6.05421869223876   20.98779090236988
H         9.78571298093506    5.20187518100421   20.65708393482229
H         8.31026447999607    5.67892598367604   21.50394338963931
H         9.78490836543952    6.62290643915303   21.70267986026138
C         4.77169769493927    7.89382811126315   18.57422991653136
H         4.55476963802487    7.65153310606734   17.53437192181023
H         4.00821282865570    8.58383978026184   18.93430354908361
H         4.69536525330487    6.98174380440903   19.16596268348471
C         8.74240725325024    6.95009252002106   19.83131876151089
C         6.13554939820685    8.52522040934887   18.79592223189647
C         8.87863871985205    9.81932964337962   21.58904641542466
C        10.18167684317634    9.35832545262883   22.18922539324059
H        10.71536253124720   10.21059855484284   22.60891062117227
H        10.83179072340595    8.89123388980116   21.44573652366655
H        10.01057146943639    8.65006556968429   22.99827125866375
C         7.57964534299801    9.37276059117008   21.94213545381954
C         7.19918381680770    8.34604776025565   22.97415213937999
H         6.71162305317205    8.82788010286514   23.82424143541747
H         8.06875227585241    7.81049890081795   23.34659002732571
H         6.49865824752200    7.61752324723804   22.56279589320205
C         6.64321106195258   10.22083913551731   21.29766460045315
C         5.16223650992410   10.20172880281840   21.54464637264476
H         4.92400724429836   10.70346800982250   22.48594481615963
H         4.78902874412854    9.18057278945556   21.60882269913466
H         4.62656183630469   10.71690457175844   20.74999168175761
C         7.35303263034337   11.16784284937800   20.53399528553004
C         6.71974088030246   12.35590738066621   19.86777566940970
H         6.31892856706395   13.03840810100470   20.62163449651653
H         5.88995222499874   12.06063738722773   19.22499729584497
H         7.44724539124002   12.90029654008340   19.27625350180053
C         8.74731086442067   10.95674410695868   20.72278296331130
C        11.81194548296625   11.65190667922962   20.37129597397061
H        12.49304939363499   12.18341329952065   19.71435250572443
H        12.29961322626063   10.73021271335798   20.66741250904850
H        11.68949015124200   12.25967812027641   21.26181695486543
C         9.92081404739533   13.01376590160867   18.51346322215910
H        10.84764989568043   13.25589014824116   18.00353514005272
H         9.69785079821818   13.84028869309670   19.17996087067215
H         9.14235580908766   12.96652799833773   17.75983871872647
C        10.82262881383471    9.30226189761046   17.66278870670766
C        11.74551604919073   10.31887224559441   16.97695046052878
H        11.15184547469428   11.08260357087547   16.48259573065840
H        12.37090870832373    9.82359127651116   16.23717504408950
H        12.38430090186339   10.80061113885000   17.70982219367845
C        11.68771174974960    8.29491751155463   18.44648795855519
H        11.04187462870064    7.56257600273295   18.93197374887452
H        12.26184831888586    8.81982393199177   19.20569320883965
H        12.37984450046940    7.77806543483888   17.78468585956663
C        10.04306910413099    8.53931598170271   16.57652897205397
H         9.25438753024759    7.94734996990828   17.05007268584528
H        10.70838107269093    7.88043846535381   16.02055447613149
H         9.60098799010096    9.24304760696065   15.87467077027832
C         8.36514165119663    5.12948048640455   18.17457975279942
C         7.63286762894788    4.14610817585203   19.09995150866737
H         6.75017059476553    4.62465066693835   19.51916075116586
H         8.26177884155182    3.79599216383716   19.91199991856934
H         7.31335537790091    3.27797902880270   18.52661554118771
C         9.77798580198675    4.62717234515240   17.84916291812354
H        10.26687763524133    5.31903517015989   17.16787876882388
H         9.72124507677540    3.64888539735640   17.37630686870813
H        10.39045253527744    4.54092787368653   18.74261619611164
C         7.56936876315038    5.22862688337115   16.86263025666732
H         6.56276716943789    5.57973775442458   17.07409362343835
H         7.51138550270550    4.26120199115505   16.36908178238370
H         8.04495764360684    5.93816047461558   16.19131653555620
C         6.18106107017087    9.90057304239379   16.68364979339892
C         7.10904194563232   11.08562902828884   16.37072768904970
H         6.81759136168376   11.95498505399256   16.95456175430024
H         7.06311248262614   11.34687566511219   15.31533933821910
H         8.13309574386336   10.82390602259610   16.63730294021554
C         4.73445263120981   10.41298655567241   16.73966963060693
H         4.55529215760865   10.94076739840862   17.67414330642594
H         4.01013221455664    9.60939248297113   16.65108240860531
H         4.56788806745866   11.10730727697713   15.91791591083667
C         6.32867502052465    8.84411731475662   15.58032753366989
H         5.74483125594958    7.95466359809497   15.79965485437711
H         7.36927369651876    8.54779466962281   15.48430748659469
H         5.98801512516879    9.25289018524007   14.63066980925734

