20
CSD_code = UFASUP | q = -1 | S = 0 | Stoichiometry = C9H6Cl2NOPt(1-) | MND = 4
Pt        5.39286613160759    3.26824903790768    1.90188760715366
Cl        7.28332117102837    4.22958572445924    2.61421180880002
Cl        6.56261964816671    1.46850751408976    1.16607547099640
O         4.23159808594457    4.85928723588216    2.53756047730695
N         3.63084131401745    2.56437813207855    1.33338638664947
C         3.35276535225270    1.41805289984152    0.73392994940537
C         2.04726643609063    1.05462725878825    0.39177809700748
C         1.00272236276822    1.89600314519046    0.67599473989386
C         1.26331589219549    3.12830690709780    1.31538287164679
C         0.28089947760315    4.06977206499412    1.65654044007000
C         0.64561190059838    5.24418686308252    2.28002455196305
C         1.96473094385137    5.53867149488645    2.58918606352591
C         2.99257771046451    4.63903757254910    2.27463595786415
C         2.61569116995140    3.41679706873443    1.62612277997880
H         4.19224477321873    0.77096378358234    0.52030615627010
H         1.88146584741854    0.10538769854203   -0.09670258026801
H        -0.01558616667735    1.63511124519976    0.42050990861074
H        -0.75395531664320    3.86101749638815    1.42488521858707
H        -0.12131109041380    5.96371066731056    2.53881611387017
H         2.22331435655677    6.46594618939150    3.07776798066611

