68
CSD_code = UFAVEC | q = 1 | S = 0 | Stoichiometry = C27H36AgN4(1+) | MND = 4
Ag      -10.49945050897712   -2.57013125725935   -9.95946615457821
N       -10.05564899918454   -2.45708009420407  -12.57382357738170
N       -12.19820817465365   -3.89251687691641  -11.18038364828064
H       -12.96717134663263   -3.22704965268132  -11.25847445891074
N       -10.61323929957962   -0.22970191289518  -10.75368133014625
H        -9.66998860810055    0.10251174680713  -10.55237950436049
N        -8.25511481854575   -3.46944513214683  -10.49418288006928
H        -8.43943986310350   -4.47161157997729  -10.54030521932688
C       -11.21194546771704   -3.03021309641907  -13.26198412852604
H       -10.95699573041384   -3.31511247633531  -14.29369957224809
H       -11.99344163601760   -2.27108743785535  -13.31080404997806
C       -11.77776956503676   -4.24488879914108  -12.53322332620315
H       -12.61297920160900   -4.64918257410512  -13.12400822288176
H       -11.02232033960468   -5.02954756592629  -12.45025062742293
C       -12.70549388389655   -5.06099568759727  -10.45219571817599
H       -11.92086214470215   -5.82346924886423  -10.45918085081064
H       -13.59482949614475   -5.48063854658780  -10.94385322661703
C       -13.02439733852270   -4.68360231558303   -9.03441860735905
C       -14.33498546719875   -4.46143137523375   -8.63226451003496
H       -15.13909106803649   -4.55581406005977   -9.34781444640443
C       -14.62084840870498   -4.14730033986438   -7.31501474303582
H       -15.64341245068749   -3.98771589985891   -7.01003038301777
C       -13.59734388177790   -4.06359805141261   -6.38645887861732
H       -13.82502063444622   -3.85172006045873   -5.35258694325406
C       -12.28559781949722   -4.26752065696847   -6.78244719849299
H       -11.48572533757621   -4.22182392966098   -6.06043663728684
C       -11.99570004658910   -4.55951446153389   -8.10512653102232
H       -10.97152406411712   -4.77367549990206   -8.39908831354957
C        -9.87626294962569   -1.05529659792534  -12.95050685511697
H       -10.02083892027052   -0.91485609279438  -14.03216072063211
H        -8.85281539550090   -0.76366836252967  -12.71198100050368
C       -10.82102017222733   -0.12606810133581  -12.19497610167504
H       -10.66085780615549    0.90165543595040  -12.55340041983355
H       -11.86207386139692   -0.38754644075010  -12.39828103908269
C       -11.54453882352134    0.62883118630842  -10.01299879837684
H       -12.56097223585672    0.34239615181553  -10.29937520620711
H       -11.40086562523521    1.68751000109152  -10.27330750428571
C       -11.36359616084850    0.42776548235343   -8.53617253934494
C       -11.92977833274347   -0.68135252654054   -7.91475266271260
H       -12.53101173529948   -1.37794641741500   -8.49257788580875
C       -11.81575366618654   -0.84297222004274   -6.54374031755913
H       -12.29954794793640   -1.67983310857820   -6.06501864839491
C       -11.10770025666957    0.07967819816359   -5.79090272191198
H       -11.03068519369439   -0.03820297240819   -4.72049896227263
C       -10.50852657655037    1.16350766026317   -6.41001110214828
H        -9.95354016191048    1.88220069583000   -5.82696862710702
C       -10.64115991813260    1.33880085671568   -7.77632120913262
H       -10.19798172018636    2.20191653711018   -8.25206868753024
C        -8.84808128561635   -3.22740737671862  -12.86931151363255
H        -8.43448055003821   -2.95319731052309  -13.85137266065082
H        -9.11511516306611   -4.28423453678000  -12.90492880992158
C        -7.77033995695753   -3.04746061566547  -11.80495403779715
H        -6.88011542657662   -3.61744313431930  -12.10946733288809
H        -7.47851543333285   -1.99764665854851  -11.72677916117416
C        -7.24246142681691   -3.26026820396879   -9.45310696158892
H        -6.34030264111744   -3.85691418942261   -9.65073094976770
H        -6.96188432922335   -2.20281694870340   -9.46965380824754
C        -7.81078276971183   -3.60693633501809   -8.10741156049196
C        -8.65191145907733   -2.70652337504712   -7.46026374012576
H        -8.86286030854038   -1.74112670259097   -7.91254794612232
C        -9.13437734199806   -2.99356812553230   -6.19409883543222
H        -9.74460921250621   -2.26752709017194   -5.68054671187963
C        -8.81007804987196   -4.19291672947067   -5.58145414442838
H        -9.17506553886777   -4.41092059173025   -4.58907130781851
C        -8.00511871904132   -5.10884700463720   -6.23702256229304
H        -7.75444517037691   -6.04602559439318   -5.76441932733844
C        -7.50384866387683   -4.81381243039115   -7.49274220841274
H        -6.85213349236399   -5.51824956900762   -7.98941172235882

