85
CSD_code = UFEBAL | q = 0 | S = 0 | Stoichiometry = C32H40B9NP2Ru | MND = 8
C         7.15575768390227    8.70790608483825    9.27241286879552
H         7.85216472827872    7.86688736583428    9.28006345558762
C         7.02876135194719    9.51738321691992    7.96292868264239
H         7.61860595015558    9.18258588836324    7.10250204582065
C         5.33146757772232    4.89374972715024   10.06758107000167
H         5.92549178488432    3.98360025306863   10.19840313841823
H         5.58154189351490    5.59012258191178   10.87206032462267
C         3.84862884159627    4.54107348720253   10.16588036919014
H         3.69391539229300    4.08089347323694   11.14613044477638
H         3.60169100733173    3.78557190320972    9.41456847056782
C         2.90017752426616    5.73834015607948   10.02816967079158
H         3.40653873069332    6.64089912858661   10.38793328825166
H         2.03598517299997    5.57322251634427   10.67392267499455
C         2.40723858622146    5.97131121070855    8.59473907489344
H         1.31793278146399    6.06054329905561    8.56695189060957
H         2.69571143295855    5.13176685444700    7.95770535956605
C         3.04010401955459    9.79602054813998    9.42652762552246
C         2.25266809294763    8.82649704229399    8.79145592436472
C         0.86157187029131    8.85569399011453    8.82041502428646
H         0.29322663693931    8.10719316894438    8.28229759625666
C         0.21092536387665    9.84993028240810    9.52146614977496
H        -0.86893394940755    9.88230841449250    9.54981679953499
C         0.96224169133813   10.80951429547459   10.18643708096052
H         0.45974923333483   11.58911917130021   10.74206449540508
C         2.34167395902953   10.78284314847307   10.13188008092866
H         2.90452266503106   11.54857059321282   10.64289417135016
C         2.32179432562478    7.62539555775545    6.25077167321666
C         2.42114993963134    8.86153857793965    5.61388240230453
H         2.89950619553660    9.67624488919126    6.14122367062818
C         1.91821935055470    9.04216458838498    4.34076478190998
H         1.99676277408437   10.00646136753364    3.85949305489421
C         1.31178893785760    7.98417493898031    3.67959930204375
H         0.91926164983144    8.12002146220570    2.68215962001728
C         1.20684190937978    6.75375841127983    4.30450649788759
H         0.72880327982225    5.92922074007584    3.79442424088523
C         1.70973268978644    6.57075353080382    5.58222203766028
H         1.61592402405178    5.60248846664525    6.05140988609281
C         7.66407761469131    5.42591906776855    8.54714009194568
C         8.33827536397478    5.44046177653042    7.32671729638048
H         7.76262221740943    5.53530493505420    6.41313926447655
C         9.71444733798616    5.33878597510114    7.28023847855624
H        10.22567458402763    5.34260380816795    6.32818737116661
C        10.44111967845206    5.23989246519212    8.45751105929702
H        11.51790945004593    5.16554368891973    8.42451272120947
C         9.78291059669800    5.24890872631837    9.67517462571768
H        10.34706542745037    5.18696818296592   10.59447626113147
C         8.40228930549136    5.34564491119643    9.72383502353058
H         7.90400224435362    5.37020335754527   10.68194016045627
C         5.44115437609531    4.37468452128086    7.30059123863138
C         4.60221950724971    4.64040063847098    6.22653226830182
H         4.21370954204830    5.64367931591754    6.09875180405434
C         4.27255587106755    3.64251022682159    5.32595896512537
H         3.61714613898327    3.86323799126560    4.49550961153212
C         4.78452739898172    2.36662239115354    5.49046135403592
H         4.52928814834556    1.58472879920847    4.79036313350598
C         5.63260977009268    2.09570793637213    6.55287145104941
H         6.03997963276121    1.10284188145752    6.67801314449063
C         5.96184115801263    3.09264881759994    7.45222568738149
H         6.63602756916749    2.87699834599378    8.26969387407202
C         5.65616381194434    7.84839469917653    4.99506029248320
C         5.70477387418771    8.00520270855462    3.56653459878533
H         4.68755431189032    8.01282273351523    3.17173724887464
H         6.26032400297572    7.18406256583430    3.11098148374167
H         6.18968705042838    8.94826881895052    3.31376971298656
N         5.57132980928049    7.68466981014959    6.13821494416361
Ru        5.36213396428819    7.94197275918276    8.05484922995467
B         5.50128597399869   10.19745542397566    7.80873734537303
H         5.09592904289904   10.47587415841297    6.72384052616676
B         4.62855255992522    9.80762224831803    9.31465354425914
B         5.73564587960844    8.73785126922711   10.17499269946134
H         5.53750267099182    7.88659264055928   10.98297615317009
B         7.17800192705030    9.71919546945800   10.65095331784298
H         7.79862957708775    9.34634133003517   11.58168805015143
B         8.02628189332035   10.20267146894159    9.18885800586025
H         9.19073165083702   10.12249598991337    9.02694437573042
B         6.93282486345236   11.20126711470961    8.24908748792518
H         7.36423585536270   11.91780922979052    7.41778791316294
B         5.43729132497662   11.40443477406365    9.15469554857687
H         4.78214127658686   12.37939451562750    9.04435502818164
B         5.59797230188355   10.48412672005226   10.66673685209213
H         5.06651744856189   10.77555304996185   11.67859970987869
B         6.99955108281513   11.37098718428426   10.01672096082056
H         7.45831432445703   12.31545956222699   10.55008896010018
P         5.85869698923043    5.71503475582753    8.48564343095739
P         3.13282849926571    7.52557090632302    7.88968274780874

