215
CSD_code = UFEBUD | q = 0 | S = 0 | Stoichiometry = C106H68F24FeN6S10 | MND = 6
Fe       17.30366821334806    0.00111374828852   -0.00311773396295
S        24.04042329936451    3.00989720481890    0.60127604960772
S        29.16438067321473    1.65955843528370   -1.81151140017395
S        20.84923179585982   -5.56966942632996   -3.07723139634414
S        18.21382666425133   -9.16367171395829   -7.00515148785688
S        17.72066300943462    0.70720824674712    4.50599822286445
F        23.65783009513732    5.38305988685193   -4.07296852362510
F        24.50056856862176    6.85829330670314   -2.74301479238240
F        28.14116745271633    5.40160863692330   -4.82599563347933
F        25.67500237075447    5.39863073209499   -5.67729906847274
F        27.73892788700760    6.83457777547130   -3.26037979928910
N        18.29621025938912   -1.70483610050548   -0.38033171636477
F        25.81014503614520    7.44058792523407   -4.96195326821905
F        17.74577235685499  -11.99731110981061   -3.23055693521783
N        19.12831724003220    1.02542543356065   -0.22924101995808
F        17.42064411451188  -11.02985352757490   -0.81097433120760
C        24.75735784989334    4.00678273066606   -1.65185196082199
C        22.92134769108029    2.90280280892951   -0.73349496568559
C        29.19073345733534    4.17359013578653   -2.27923025940773
H        29.49318969387340    5.19902594642022   -2.38239301314098
F        19.89486870151570  -12.11111420501816   -3.02192880371153
C        26.82814011291736    4.65919260249771   -2.95528983339751
C        20.67210370477028    2.26440012822289   -1.58438773983236
H        20.85784903500927    2.74590841405399   -2.53017356268438
C        19.60322837521004   -3.00669980280328   -1.90430497120223
H        20.22690074818776   -3.02187643477468   -2.78497591296229
F        19.04891093304072   -9.27328690364865    0.21602085592783
C        21.63965435656881    2.26443308893753   -0.57230156168909
F        20.81112238360112  -10.23546851395557   -0.57742264951992
C        25.50456315761424    4.70788264678258   -2.67942241804700
C        23.45233564215795    3.49088282150253   -1.84770909126349
H        22.94635480626777    3.53524124287608   -2.79349256402968
C        27.85175115958721    3.74813404782557   -2.50107633293762
N        17.63075107714158   -0.14207908703812    1.88085325386967
C        30.02799338492866    3.17566906802141   -1.88103276506695
F        19.14855949563026  -12.29962207999317   -0.49983494960879
C        27.21478968713816    5.76155806997124   -3.91459140475742
C        19.69520448420937   -5.47581999815262   -1.77081699817941
C        24.81821960667778    5.77648349903869   -3.50076020229236
C        25.21076122883082    3.82754337394649   -0.36012603619698
C        19.10426497006443   -1.81149874072014   -1.44236432209048
H        19.34449735833476   -0.89726877123545   -1.96246748443608
C        31.43542090168020    3.24246041194681   -1.54109706573298
C        19.27473979770707   -4.20102270670285   -1.25255963116990
C        27.68430106122808    2.39476544930525   -2.29652298645382
C        19.40431776225907   -9.14874202383744   -2.15430667872841
C        17.66432473308749    0.24509548756281    2.99145634849733
C        19.25475683733567   -6.72682923179009   -1.43066824793771
H        18.52993364683654   -6.92111947412248   -0.66187698736309
C        19.79865157797407   -7.75030845398689   -2.24142361985959
C        26.47837637911805    4.28651534354192    0.25685586709972
H        26.32831624173979    4.49632468113690    1.31360005425781
H        26.84023063525332    5.18478183744205   -0.23914765472207
H        27.25102036502017    3.52063791668899    0.17161396455448
C        20.05590649400015    1.00662133917134    0.73035042641135
H        19.78852968869904    0.49187125496992    1.63911484832423
C        25.86978175395829    6.15900773237531   -4.57557452404482
C        17.80649002866542   -7.82365595115552   -5.96348916268441
C        18.04586240045371   -2.83322731441971    0.29070542037431
H        17.46009224431468   -2.72719356344228    1.18940853325404
C        19.46020311515660    1.64647363218213   -1.36594894736003
H        18.72019983414495    1.62351133749143   -2.15292959498682
C        32.18713402411358    4.38621227466294   -1.82004311955419
H        31.72431307707092    5.22917056184135   -2.30815394809229
C        18.71204111568476  -11.21968857625396   -1.16310035820637
C        20.69611423323701   -7.28049277336897   -3.17454596663612
C        18.96210537074421   -9.92361476066566   -3.17018501121586
C        18.72793500012803  -10.13864594066467   -5.67934475984928
C        19.51908322449155   -9.92635415064134   -0.86935227911639
C        18.49442433723563   -4.07644879724966   -0.09588538777330
H        18.24184859697456   -4.94174436178146    0.49472344072677
C        26.47872493463757    1.55566101515966   -2.50622143970408
H        26.76884262802377    0.55603152530933   -2.82258596644710
H        25.83464698529535    1.99813656748441   -3.26316488220983
H        25.90368785111574    1.46166604516998   -1.58361530112644
C        21.29249256095080    1.60305350687563    0.61002886261871
H        21.99054574704163    1.55524793099629    1.43184978581626
C        18.60201892760821   -9.45497113882988   -4.48938910499639
C        17.29450463903838   -6.57495181192937   -6.49344668968529
C        33.40734531253931    2.21800908863192   -0.60000461050272
H        33.88015132828185    1.37089611321393   -0.12592156835636
C        33.52661149431021    4.43967808242145   -1.48816745080182
H        34.09588965058767    5.32966583279316   -1.71133435107853
C        18.06793215055030   -8.14673582297352   -4.66836746872571
H        17.84187160649728   -7.50096053696759   -3.84165580291793
C        32.06776573111453    2.15911219442181   -0.92914114194289
H        31.49628165827167    1.26789935824120   -0.71028691323114
C        34.14195726953368    3.35949320630780   -0.87636466647488
H        35.18926477869547    3.40622660966347   -0.61910770917303
C        18.80840179847681  -11.35196755178724   -2.70897288564478
C        17.32713000286427   -5.41139315471178   -5.72031706587730
H        17.74531219337054   -5.43786066241895   -4.72528546830381
C        16.77600514830815   -6.50767286757979   -7.78654880075816
H        16.75127262017541   -7.40218330813248   -8.39328569737102
C        16.84274983941397   -4.22122274807209   -6.22601250269984
H        16.87560407497678   -3.32802376211211   -5.62118578328705
C        16.32225689131805   -4.16931555714748   -7.50931119621765
H        15.94638268605280   -3.23594665081787   -7.89948266567257
C        21.48787725564856   -8.05001309638525   -4.16574749717539
H        22.47347136958232   -7.60641314761609   -4.29031587863869
H        20.99172740636428   -8.04438574470439   -5.13763818469021
H        21.59825647866472   -9.08357604581844   -3.84460209885932
C        19.26381257613765  -11.49874352419840   -5.94030981171117
H        19.39312517424932  -11.64978906281729   -7.00909980063851
H        18.57812740027886  -12.26014096897592   -5.56780935824061
H        20.22334378433359  -11.64277605242266   -5.44540960527110
C        16.29277320911675   -5.31473454088431   -8.28795588492388
H        15.89208316628863   -5.27907847530802   -9.29020416387539
S        10.56674201347520   -3.00830329504000   -0.60702227101413
S         5.44272438642305   -1.65887547024431    1.80716471992513
S        13.75654252533600    5.57085180237364    3.07135336897189
S        16.37874271995048    9.15892746522104    7.01618786796983
S        16.88142530926777   -0.70473758695692   -4.51166086506009
F        10.95048994768395   -5.38219422276867    4.06661268509309
F        10.10716420405733   -6.85720987239814    2.73679019764096
F         6.46715525809651   -5.40103301043507    4.82069179645009
F         8.93352715084166   -5.39750164564257    5.67146162722448
F         6.86935649188151   -6.83390285265288    3.25497789848961
N        16.31141874074718    1.70717995308247    0.37428018075871
F         8.79853684655072   -7.43955703826142    4.95636550383257
F        16.86746190163631   11.99471821350100    3.24648415795133
N        15.47896432006198   -1.02368399594042    0.22283533229467
F        17.20235637507886   11.02906787646214    0.82747954596745
C         9.85027519341445   -4.00546489211619    1.64614021533960
C        11.68610162306156   -2.90138861934035    0.72752288014888
C         5.41691405450445   -4.17303049073977    2.27425212919273
H         5.11466354207586   -5.19854664703113    2.37723268737630
F        14.71949978446794   12.11164293816668    3.02810544556086
C         7.77973944479873   -4.65833116184118    2.94980108731193
C        13.93586363911731   -2.26386067636994    1.57769528189437
H        13.75062052552247   -2.74618593013025    2.52316367202990
C        15.00378599317913    3.00818551709219    1.89846874149177
H        14.37876884630083    3.02270696025915    2.77819619603261
F        15.57607267641819    9.27608097315883   -0.20887320326730
C        12.96777291584087   -2.26300721033863    0.56613314617313
F        13.81176978088233   10.23978619924325    0.57801344593952
C         9.10329151785620   -4.70675343156753    2.67374211191106
C        11.15533345622892   -3.48956505241929    1.84178988820874
H        11.66149186421719   -3.53395463262679    2.78747801938363
C         6.75586988593641   -3.74738857430885    2.49592498626483
N        16.97667911534568    0.14475711892490   -1.88676950012854
C         4.57938274322745   -3.17515678758292    1.87649794669296
F        15.47772357992989   12.30164180167157    0.50966734955819
C         7.39343294788575   -5.76081586185802    3.90911288374912
C        14.91494970419750    5.47762508323083    1.76880094242449
C         9.78987409791045   -5.77544041851635    3.49477719493106
C         9.39662328887196   -3.82610287416434    0.35451590109013
C        15.50193711596938    1.81311956727109    1.43529474090121
H        15.25986676735087    0.89835028267424    1.95360041961342
C         3.17188240847508   -3.24204283421215    1.53686958552883
C        15.33484122950587    4.20315676520009    1.24923635313166
C         6.92303371554011   -2.39394113339054    2.29166667389489
C        15.21013226406366    9.14938935818576    2.15983324303660
C        16.94001768220264   -0.24266015015930   -2.99718191147176
C        15.35867507816271    6.72853133097995    1.43263684955417
H        16.08661975093398    6.92299977600094    0.66684774484974
C        14.81358319531120    7.75139301964695    2.24340765060394
C         8.12893614629293   -4.28514725411296   -0.26226344278708
H         8.27876058951158   -4.49461476750150   -1.31910761581824
H         7.76742010600328   -5.18364257284961    0.23357861399586
H         7.35613829685428   -3.51947668711684   -0.17657871354121
C        14.55085661116091   -1.00407026375851   -0.73625245326803
H        14.81767764842500   -0.48851620883130   -1.64471463311886
C         8.73862511000350   -6.15802801942229    4.56985931170660
C        16.78925823635006    7.81922166045152    5.97537156697616
C        16.56426392467543    2.83637641892748   -0.29447627069394
H        17.15133018081280    2.73113435389144   -1.19243382767749
C        15.14764714938770   -1.64573523362615    1.35916049738221
H        15.88795027333718   -1.62334814778934    2.14585261449278
C         2.42043732902969   -4.38609643576428    1.81530480521668
H         2.88354124087646   -5.22931117998663    2.30270191423724
C        15.90963058882018   11.22043440840408    1.17387471998252
C        13.91199809897278    7.28125260255211    3.17240334019602
C        15.64866594536728    9.92271177718829    3.17850257465764
C        15.87170755553583   10.13545755478582    5.68881801105974
C        15.10210432442302    9.92855171715511    0.87520205557424
C        16.11679510059780    4.07954170533847    0.09357658812723
H        16.37132672747583    4.94552332301027   -0.49519170587312
C         8.12852231335536   -1.55468885341066    2.50126441561585
H         7.83831138583019   -0.55512589654849    2.81775079692560
H         8.77277413979023   -1.99713810536970    3.25807672268054
H         8.70341224772297   -1.46055159321594    1.57858078429702
C        13.31433804075445   -1.60063101102525   -0.61581083236940
H        12.61585131551486   -1.55208046516981   -1.43722003501526
C        16.00220140512199    9.45252014705591    4.49892837331053
C        17.29754139890204    6.56964779825983    6.50684107209948
C         1.19954627546981   -2.21739164238746    0.59683111798642
H         0.72645095998761   -1.37003044049147    0.12348333622408
C         1.08088453172368   -4.43959631433308    1.48372725503896
H         0.51183322392054   -5.32984404282845    1.70643627018982
C        16.53397217453291    8.14353360321315    4.67932173943813
H        16.76288345078409    7.49809111628990    3.85313044275954
C         2.53918873354880   -2.15845104708903    0.92569664683743
H         3.11044381660310   -1.26698569140394    0.70727597143149
C         0.46519741356942   -3.35916457394921    0.87270200589789
H        -0.58218016043552   -3.40590160737069    0.61572904066013
C        15.80635896026296   11.35131960426583    2.71940238227433
C        17.26778725721938    5.40670382520194    5.73267748072326
H        16.85451332395511    5.43424368586314    4.73563226907440
C        17.80959596405816    6.50095565388947    7.80244028282472
H        17.83217499980842    7.39500421299013    8.40994116488325
C        17.74872679612008    4.21575778787701    6.23983907688585
H        17.71811577506067    3.32307586843321    5.63414315796149
C        18.26279954514505    4.16244097492037    7.52566678949928
H        18.63603009625263    3.22849366913656    7.91699685066179
C        13.11764212546660    8.05009778719522    4.16205158064060
H        12.13096148177744    7.60766641749068    4.28210011205141
H        13.61012022870148    8.04197950923381    5.13578636380803
H        13.00993387074681    9.08440090864817    3.84239178934803
C        15.33614822992544   11.49593369061125    5.94846724121803
H        15.20225014577714   11.64626513127181    7.01679394979671
H        16.02429541949413   12.25689356393946    5.57963635272406
H        14.37897720645601   11.64139600794909    5.44943153928352
C        18.28933828936173    5.30724003300917    8.30533391774739
H        18.68515386787526    5.27052833536671    9.30947840286086

