93
CSD_code = UFECOY | q = 1 | S = 0 | Stoichiometry = C38H47Cl2N4ORu(1+) | MND = 5
Ru        6.69157871197034    3.02577891908611    9.43468309852769
Cl        5.78664913065241    1.62708909100817    7.86800426453717
O         5.68712174215098    4.67402687185881    8.30754667627317
C         5.12646123145985    3.26562392798449   10.48283638191252
H         4.84094480864005    2.73317761580290   11.39038756640226
N        -1.48378751956961    7.42938079823075   11.82451116578953
Cl        7.99159609437581    4.65974828412077   10.36154746716300
C         4.19001315697999    4.22317610416771   10.02042043636428
N        -2.80899069368457    8.58827882290217   10.53121873808131
C         2.96088644477349    4.45355419153320   10.65631757623215
H         2.72963798403245    3.87916733400023   11.54207079297511
N         8.81606706763737    1.08995870595795    9.91967957019939
C         2.05594302310397    5.37352531363072   10.16408821178071
N         7.24951398435678    0.60102667339284   11.29906390875690
C         2.37732566750872    6.09259155860342    9.01682954115384
H         1.67364606730600    6.80882638350239    8.61711144965099
C         3.58403817391258    5.90310098817202    8.36228058289416
H         3.79184507054963    6.47334898794539    7.47073688406917
C         4.49369415779085    4.97898015819445    8.85103292592446
C         0.75362536126687    5.62509522265260   10.87824898292350
H         0.47439755660625    4.73599915378641   11.44616333210499
H        -0.02988528799923    5.82789906964425   10.14381063973868
C         0.89893729312348    6.81414590208749   11.83327171925372
H         1.71974778811801    6.61613350233741   12.52284766239854
H         1.15330908090452    7.71018221327784   11.26402385668428
C        -0.36529985598876    7.06923426608550   12.66212969628048
H        -0.63400607356787    6.16774089617489   13.21598750498057
H        -0.18655634963121    7.88015721560962   13.37189494699255
C        -2.42714520176158    6.57804270323166   11.33186889477085
H        -2.44918177996743    5.53793080642538   11.58400709436763
C        -3.25550074738296    7.29876739301626   10.53004822058475
H        -4.11426948538845    6.99079607710475    9.97003474801604
C        -1.72879075049973    8.64741409459229   11.32178575673760
H        -1.15751289137681    9.52915392018378   11.52882769514326
C        -3.41122008499237    9.68061349664392    9.81838113640720
H        -2.82071356963677   10.58294224936486    9.95887557714506
H        -4.42377865424093    9.85773806538827   10.18429893449515
H        -3.46394468430092    9.45029011343749    8.75356863832331
C         7.60099332952612    1.48736772209407   10.35295309717201
C         9.22430658835191   -0.02971246409037   10.59099727969765
H        10.16734963644660   -0.49918570687571   10.40016805199477
C         8.23501047968928   -0.34034682992514   11.45914144049843
H         8.14911790113243   -1.13461772472106   12.17189085008577
C         9.57548231671425    1.81228614898845    8.95196736012908
C         9.50650971556947    1.44865459305524    7.60332058584706
C        10.19601660126505    2.22773770713046    6.68314456653913
H        10.13446364974008    1.97304361261174    5.63507066511513
C        10.96607652634833    3.31133482028052    7.07887338269245
C        11.10383973063838    3.57450249289698    8.43629280546430
H        11.75068976780543    4.37727983773553    8.75793561940784
C        10.43346126299343    2.82743815788951    9.39201956023303
C         8.76829297309501    0.22092772139668    7.17045572567469
H         9.08492857743104   -0.64098274510919    7.75657112726266
H         8.95788874083184    0.01722505939106    6.12045194179374
H         7.69385161759767    0.33970334234320    7.30815211662445
C        11.68601400874217    4.15570876624644    6.07364246689640
H        11.52651897518980    5.21277205698938    6.27898409822970
H        11.34788925308166    3.93625619576916    5.06424925094189
H        12.75800803541730    3.96698072846345    6.12543439202451
C        10.69200475660580    3.04711235090852   10.85137232875383
H        11.45393179743194    2.34353866860809   11.19195925822131
H         9.79636017030933    2.89867352714173   11.44942327031960
H        11.05507112798571    4.05594859036009   11.02384993834866
C         6.06612960989003    0.61824852097065   12.08426120888059
C         6.03124051207508    1.41586471763588   13.22800723075986
C         4.88310165398900    1.39559785681755   14.00533743870611
H         4.83997520279738    2.00595675069677   14.89580162341302
C         3.79062081978029    0.61067244788711   13.66061448296079
C         3.85206319403969   -0.15882425917739   12.50675872676151
H         3.00152895413505   -0.76259501228045   12.22587998011058
C         4.98242479946768   -0.17056282492293   11.70295128716497
C         7.19197458147424    2.29927449456465   13.56185979860293
H         8.10789004641443    1.71840972266446   13.66271204156647
H         7.01598262166964    2.83468147784528   14.49016015881289
H         7.33859232595950    3.02623636423045   12.75964728810161
C         2.56934441287346    0.57968371789118   14.52844513742632
H         1.67140924049309    0.43916863892376   13.93090449667937
H         2.47606459174920    1.49702683454002   15.10499838463050
H         2.63693531031397   -0.25215813432686   15.22960035482796
C         5.04319303248418   -0.97251369525992   10.44274470996797
H         5.85609841834340   -1.69651158770257   10.47902622862510
H         5.22392146595041   -0.31044227094125    9.59488944374223
H         4.11090967266332   -1.50447696828255   10.27823281759810
C         6.24824511763573    5.40178265250117    7.21500484234156
H         5.48546325695633    5.50960272651391    6.42990997048978
C         6.74338597630958    6.76628626290220    7.68897639652026
H         5.92530252116885    7.37005794462909    8.07569135279355
H         7.21211410158944    7.29661670403247    6.86495073355038
H         7.47372781221340    6.62870398926830    8.48471465374102
C         7.39756878530489    4.54097429259375    6.70116077667227
H         8.10699614238769    4.35085386618407    7.51503989127935
H         7.92971254348643    5.05043172456394    5.90309442413832
H         7.02200976918261    3.59106932424424    6.31946066314400

