87
CSD_code = UFEDOB | q = 0 | S = 0 | Stoichiometry = C32H42B9NP2Ru | MND = 8
B         7.50865791218975    5.99434464987282   25.37537618018433
B         8.07005997354011    7.64466595408941   24.91949065416291
B         9.19921976991781    8.07149707758127   26.17138673743483
B         8.34130381376090    8.18848669806858   27.73426406296581
B         7.70952794797316    6.61531731066707   28.16235842957084
B         6.58468378166997    6.11812768181899   26.91635714770029
B         6.47758139924391    7.41521529167611   25.71234428785624
B         7.54111302872408    8.73469032698906   26.25741057435544
B         6.62012729207670    7.80885907421569   27.45646890791493
N        10.59900832031439    4.38679373699802   25.71236045540837
Ru        9.82308712692249    6.07827037970169   25.19066804715413
P         9.75376340293383    5.50471611276061   22.95292077630450
P        11.99845403926757    6.89326951595531   25.14290487618863
C         9.19843376416883    6.77032270835941   27.25473065176497
C         8.21869750316788    5.64555657757962   26.83718645395193
C        11.40272489503884    5.59351579082207   22.09968965713130
C        12.41253739528046    4.62317502654856   22.72308512558827
C        13.63134394982733    5.33166514563830   23.31990314817014
C        13.43592155141008    5.75189941490167   24.77298227232599
C        11.44052461149154    8.96704023667185   23.40441229624193
C        12.45113184128402    8.35038432157080   24.13326701449095
C        13.74801920333184    8.84999066375372   24.06068845305420
C        14.02559931732271    9.94375736867067   23.26070277398638
C        13.01489991647698   10.55002957172070   22.53131252775675
C        11.72028892957013   10.06310567410658   22.60772639600328
C        12.57672288260481    7.40815876849474   26.80193103305414
C        12.75172349471061    8.74022373020899   27.16047720778674
C        13.08996242797668    9.07664251418957   28.45919989094412
C        13.25136646532653    8.09135931847523   29.41831519001552
C        13.06670849701945    6.76189406468634   29.07477778171812
C        12.72471866946928    6.42525569470933   27.77878192816646
C         8.72093356680691    6.42633448351205   21.75685306523589
C         9.20771792338620    7.48655033301926   21.00035750871095
C         8.36830141590094    8.17489486754000   20.14180923362864
C         7.03511031462143    7.82010541793823   20.03293508615229
C         6.54023523665709    6.77169433635687   20.79171564190543
C         7.37599860987599    6.08204131543996   21.64779589676422
C         9.25405065860224    3.80999824594928   22.43991727194127
C         9.24467958845433    3.43929070225254   21.09815329177485
C         8.87634130987029    2.15981970857411   20.72841057574713
C         8.50497515899157    1.23517093212347   21.69191817181056
C         8.49451776933959    1.60020930618362   23.02669682155175
C         8.86644597628612    2.88142580850228   23.39585768406783
C        10.85933814435184    3.41353426648151   26.29180547870321
C        11.21978225238605    2.18012747905872   26.94281877950011
H        10.74105927377754    1.33837073518587   26.43888924423419
H        10.89886600237948    2.19634481909130   27.98564543818025
H        12.30191824439235    2.04006138554417   26.91015107302582
H         7.12988158193443    5.10069941762313   24.68681781219388
H         8.04089876934622    8.08101462068153   23.81280979257325
H        10.15426554454228    8.78566391911182   26.13983246169495
H        11.28148565739728    5.40119743189713   21.03135532742721
H        11.75688743935347    6.62018972365380   22.21968687479894
H        10.04497287901470    6.50241717148756   27.89619453003242
H        11.92428622751601    4.03841489179212   23.51129208877169
H        12.74789522586291    3.91681247555310   21.96115329789613
H         8.46496313775730    4.62533396100899   27.14899469960020
H        13.88341546270398    6.20375286136710   22.71139197518861
H        14.49045767478043    4.65439751508090   23.28742421620550
H         5.78741482196778    5.27824718458301   27.13993899869981
H        13.26966316665434    4.85476057427679   25.37664822053197
H        14.34898995114926    6.23063252544759   25.14061027125272
H         5.48992575776408    7.59947087253013   25.09307515026325
H         7.33451125901485    9.87456543110806   26.03444791319580
H         7.80158751971336    6.12712428916723   29.23213087135262
H         8.83522063200835    8.85562405291162   28.57332452302688
H         5.74775208822651    8.28407044266634   28.09042318936977
H        14.54076850467993    8.39602789569769   24.63864235878211
H        15.03438472893795   10.32778471157740   23.20845968916112
H        13.23846705731195   11.40431538459825   21.90926835038917
H        10.92687144440190   10.53738065371255   22.04936063656863
H        10.43195439531216    8.57705738813626   23.48317368900345
H         8.84251584793496    3.17927871673897   24.43510963847913
H         8.18925725865836    0.88663421619820   23.77898908458708
H         8.21574554634681    0.23616329737863   21.40011992273042
H         8.87259756234094    1.88107233195604   19.68445917581522
H         9.51062625831661    4.16157526885963   20.33908617079364
H        12.55940923912478    5.38690745750365   27.51897340032515
H        13.18135216048452    5.98892142204894   29.82190273698826
H        13.51172854700840    8.35690326500250   30.43217026982477
H        13.22205820842973   10.11511515606925   28.72517944641061
H        12.61667235702240    9.51747630350309   26.42255603719323
H        10.24147676242893    7.78675432981245   21.08035646925773
H         8.75849811234029    8.99551580320337   19.55669271023660
H         6.38269806867510    8.36216404467765   19.36438200693742
H         5.49886440311849    6.49545604028882   20.71833587512429
H         6.98759417021469    5.27280240727217   22.24831891501685

