83
CSD_code = UFEFAP | q = 0 | S = 0 | Stoichiometry = C32H38B9NP2Ru | MND = 8
C         4.20454468210069    1.65228113203131   13.80008376648080
C         4.91064224898786    1.84969452404576   15.17744830990531
C        -0.27745435751087    3.84558091860764   15.47993752552217
C        -0.61531255881493    5.32800756938077   15.64280647818788
C         0.57435490066030    6.27861668381424   15.76887103134695
C         1.56850444125255    5.95091153104102   16.89233805859519
C         4.61751010387010    5.90064940702610   14.04708475877235
C         3.78134124610721    6.42807814321872   15.05016507872384
C         3.59662977543596    7.79503923780045   15.21174530201943
C         4.21903022125082    8.67862315259574   14.34980945618646
C         5.03994351998736    8.18818124382472   13.34586647726075
C         5.24237717987273    6.82755085484079   13.21046330909597
C         4.36649146110614    4.96807104977855   17.35719634370895
C         5.40986265364212    4.12884004231204   16.91230312515837
C         6.50056267323665    4.00260818929368   17.77168942898556
C         6.53579320409653    4.61991529256940   19.01056205104569
C         5.48511539638494    5.41967187459835   19.42787588223136
C         4.40304476576489    5.60898267163730   18.58688457180216
C         0.44598361016996    4.48850842019711   12.80968608246525
C         1.30544617812693    5.46490623860466   12.32245057700634
C         0.88951422591007    6.31438114820477   11.31235992041864
C        -0.38598471819902    6.19303731085853   10.78620707229217
C        -1.24643675466947    5.21923567724921   11.26913889829120
C        -0.83421595271402    4.36885863936566   12.27828505521626
C         0.38380588979349    1.79307496107555   13.61257983112934
C        -0.08206075746191    0.84314474519796   14.51941468980850
C         0.56716796479445    1.42074642722303   12.28204182301135
C         0.25802102212805    0.14059105294780   11.86287237722991
C        -0.22694116866240   -0.79057956267104   12.76743502093389
C        -0.39252660147081   -0.43605320582512   14.09682765490053
C         2.20681490347929    1.47321263748008   17.32778950459077
C         1.96496938036419    0.58460198623041   18.43413589196321
B         5.33989405523502    3.44527957305043   15.46052796959016
B         4.86685497122310    4.32932638615214   13.95424297210838
B         4.09166373529055    3.10859430004884   12.93874800361703
B         5.31018402342250    1.88027489169878   12.49455395962836
B         5.82588631076021    1.04975452465804   13.94410277677369
B         6.57288418663454    2.22005042438152   15.01171292069512
B         6.57864323933421    3.79087932400561   14.19964611500938
B         5.79756246082104    3.57401202814448   12.61337088902181
B         6.86067724501704    2.29763370444823   13.25919738325549
N         2.35619316030541    2.21364377151175   16.44687804224699
Ru        3.13378315726759    3.22150253356286   14.98163847146018
P         0.99647845693994    3.41521591900362   14.18122851227545
P         3.04895574375200    5.15669985277648   16.12404999006858
H         3.24150733257851    3.21958554077395   12.11513646046911
H         3.49835255646202    0.82266106508944   13.69526688429271
H         5.12238323919784    1.25801441854764   11.51217837733939
H         5.94062645676874   -0.11745933211012   14.05162892720961
H         7.90063533873363    2.02989729768206   12.77759337973085
H         7.30403500683275    1.82316199219429   15.84588586599942
H         6.08250284176056    4.19690649143439   11.65428018553875
H         7.41105834241785    4.60050036773648   14.40404372877182
H         4.63827267137934    1.15684272811793   15.97926868551386
H         7.34244423688269    3.39912373114810   17.46695928583823
H         7.39040112454415    4.47721824257253   19.65723525748285
H         5.51186570824267    5.89743356961337   20.39694665358718
H         3.58284257443429    6.24259417193516   18.89584718544005
H         1.14052304539711    5.26391664360885   17.62738796986317
H         1.87209523882007    6.85699080142830   17.42253272105948
H         0.17370913112974    7.28485284068100   15.91537706532451
H         1.11120425521404    6.28050251494427   14.81410649485592
H        -1.25235497566127    5.42983537859076   16.52771231957960
H        -1.20104647062546    5.65266859003800   14.77898939490252
H         0.12317439070391    3.45408909265951   16.42079955094755
H         5.89864939091701    6.46330715460842   12.43482149980737
H        -1.20195101006199    3.30535862177330   15.25212453862225
H         5.52825988419282    8.87698931186250   12.67056855304749
H         4.06712419552674    9.74279307568991   14.46149512138559
H         2.96150391282403    8.17688395346745   15.99849713577129
H         2.30304429256053    5.54390714556747   12.73451578105549
H         1.56303579847519    7.06980362459309   10.93611935931499
H        -0.71172104192981    6.85451817867263    9.99686131969635
H        -2.24063606456608    5.12359821590644   10.85658000908182
H        -1.50085266522026    3.60255246502505   12.65107358845698
H         0.95308150772072    2.14553486551597   11.57884291910873
H         0.39865440764645   -0.13496994506818   10.82787171793212
H        -0.46837761033158   -1.79111423269316   12.44016714579182
H        -0.76274069933937   -1.16279753864448   14.80653456390363
H        -0.19684493064372    1.10819815577378   15.56155703523896
H         2.79859039374325    0.62897562719677   19.13663149946809
H         1.05144550569363    0.87781737732190   18.95381043662764
H         1.85480316245551   -0.44072943134663   18.07709802189176

