67
CSD_code = UFEJOE | q = 1 | S = 0 | Stoichiometry = C18H34ClCoN3O10(1+) | MND = 6
Co       -2.22294212492293   -3.77371486866803   -7.00270227270566
Cl       -2.12497508097008   -2.10225498877869   -5.71944516993384
O        -4.38445669615935   -3.74815117503926   -7.07000171732985
O        -7.10633697989087   -4.43247971564999   -7.39589914654723
O        -7.61875196728687   -7.18960749576185   -7.93894423383506
O        -4.09022197860136   -6.83675281228099   -8.92831151639749
O        -6.14029041017046   -7.96076650765651  -10.77505389918467
O        -2.23067485350905   -5.01414812242668   -5.22532158168861
O        -1.42449413322657   -6.35622151900266   -2.78548262558936
O         1.20583678250671   -6.00088267318084   -1.99729068639056
O         1.40936778569648   -5.02835624917758   -5.49272237584744
O         4.12025984386630   -4.53998521841958   -4.61923545749420
N        -2.44494433901974   -5.25551246119970   -8.32703236162063
N        -0.23084212667133   -4.27842506138882   -7.01064116152358
N        -1.75307279245365   -2.64441613321285   -8.60017321537710
C        -1.35481955097720   -6.22002050155342   -8.09187816038301
C        -0.03159229403979   -5.48591371218195   -7.84148776268685
C         0.44754446831732   -3.09968376253491   -7.57048009995310
C        -0.29193155648676   -2.62822235386151   -8.82689627911353
C        -2.52600809065774   -3.19184807832235   -9.71892072053542
C        -2.40452075852668   -4.72149292582494   -9.71028458913886
C        -3.74409088718881   -5.84337356062840   -7.99978841089454
C        -4.83496390429691   -4.76845877325504   -7.93402542427613
C        -6.12403959877144   -5.42963221061909   -7.45066259841412
C        -6.47731112464028   -6.55092865863060   -8.44146564641446
C        -5.28383556466175   -7.52431956778523   -8.57749267238932
C        -5.54104842942601   -8.57747071155312   -9.66116635580646
C         0.12180893324663   -4.49927129326815   -5.60811468242130
C        -0.90114449368085   -5.44064148266512   -4.93657108546395
C        -0.58007302205654   -5.47769755813379   -3.45201136714812
C         0.92897571817885   -5.94978552772102   -3.27705810711534
C         1.84297825099603   -5.03617984026306   -4.13405071990702
C         3.28271457769575   -5.53095128822374   -4.07979043890266
H        -1.62506522641953   -6.81242375908651   -7.21934043021060
H        -1.25704039927316   -6.90685189489460   -8.93871183011606
H         0.41674582287317   -5.18592454572404   -8.78774539696493
H         0.67873725831876   -6.14838334232685   -7.34114157345216
H         0.40838990397357   -2.30861057306067   -6.82063089754451
H         1.49704738813643   -3.32209774635966   -7.78618799909059
H        -0.06324694243843   -3.27805924604810   -9.67231977446504
H         0.04974647310945   -1.62161782025152   -9.07888041387524
H        -3.56408123061693   -2.88413078759762   -9.58931030458699
H        -2.17500873619736   -2.79853543442925  -10.68064527378940
H        -1.45707616012655   -5.01366822463276  -10.16231963392080
H        -3.20260312694197   -5.17743832332688  -10.30025357269258
H        -6.19334512362791   -9.35844313852231   -9.24739416450493
H        -4.57637495511708   -9.02589533377936   -9.92498512909109
H         3.36341697718297   -6.46745153709241   -4.64896994518900
H         3.50709167662073   -5.72735286377223   -3.02373381338228
H        -3.66260469239856   -6.27916677880886   -6.98882866229312
H        -5.03576978142061   -4.35784455265740   -8.93433091359421
H        -5.97505448103963   -5.87351922913408   -6.45289595555033
H        -6.67410420111379   -6.10354052219599   -9.42521608276079
H        -5.13768919387456   -8.03329894770830   -7.61200370650650
H         0.06357713803288   -3.52312896867505   -5.09865237238150
H        -0.80062620926649   -6.45685129609846   -5.33260909994482
H        -0.64787405434758   -4.46367163631613   -3.02170281139085
H         0.94876031879363   -6.96562798477389   -3.74206198134336
H         1.81816114163401   -4.01296451222924   -3.73500034880836
H        -2.06207784940511   -1.69410094972614   -8.39709229426702
H        -5.15071142677466   -3.25104965704990   -6.74713825427370
H        -2.57463981110289   -4.55061828365509   -4.44517567734882
H        -6.16493931090504   -8.58497139294635  -11.50816220414230
H         5.03832150755747   -4.79248564810772   -4.47370396278224
H        -0.98720371748117   -6.57495521603477   -1.94550833204826
H        -7.96119178436661   -4.85919082829625   -7.25540551941678
H        -8.00097079418818   -7.74756221581260   -8.62513912584488

