33
CSD_code = UFENIF | q = 0 | S = 0 | Stoichiometry = C13H16ClHgNO | MND = 3
Hg        1.91418152523357    4.45503515192091    6.78446786809728
Cl        4.10859527190599    4.78735715533312    6.01871124467251
O        -0.33630265314581    1.44165093965671    9.20024270049644
N         1.40421296490000    2.32737934833922    8.12778505086036
C        -0.24901597805452    4.52156256245663    7.17487563739135
C        -1.15445239437994    5.48367368161651    6.74195679975041
H        -0.81333938841529    6.32840354765946    6.15679061054686
C        -2.50600542577164    5.38804051079448    7.04932557981666
H        -3.18644385018119    6.15134908344303    6.70089339733125
C        -2.98083812448775    4.32507860327573    7.79715895618243
H        -4.03161377972603    4.25288620306600    8.03537706245615
C        -2.10311608699881    3.35356117071071    8.23823859045499
H        -2.45388708277622    2.51501407228132    8.82026744446155
C        -0.74613630299785    3.44604351517272    7.93009891038799
C         0.15920581120678    2.40291320501388    8.40919825258706
C         1.96954286639972    1.17117196235709    8.79887032584720
H         2.32961018510660    0.47671700453862    8.02999370717987
C         0.74405673439149    0.57933863752146    9.54264824295535
H         0.49906477976349   -0.43345121834973    9.21476844052821
H         0.85116018871301    0.58779882640289   10.62966890656706
C         3.17745112407582    1.55107464334627    9.68974823645773
C         4.32676394018758    1.98920552134316    8.78000563803385
H         4.64319411659067    1.17054260642277    8.13791881791683
H         5.17781404045297    2.30803081668800    9.37649412109502
H         4.02168048096428    2.82310138517667    8.14655725950158
C         2.81232737964084    2.69818106328604   10.63274208605771
H         2.55371950305054    3.58869072567259   10.05828839266109
H         3.65861105629347    2.93683162888180   11.27186678911838
H         1.96725669082462    2.44285684817036   11.26885268209503
C         3.62752454016476    0.32622194621901   10.49131389366118
H         2.88557840973225    0.02651726369274   11.22699219223566
H         4.54976585972718    0.55552569639418   11.01940413032578
H         3.81413359759033   -0.51640410848355    9.82937803224942

