33
CSD_code = UFENAX | q = 0 | S = 0 | Stoichiometry = C14H16ClHgN | MND = 3
Hg        0.90102151713357    8.07385113334515    2.27156099776740
Cl        0.50045183673215    7.65612291558941   -0.03787909576796
N         1.88941775301446   10.59957373346171    2.34816577604568
C         2.85026567921754   10.42712871768346    3.45076678880762
H         3.16994819879738   11.42866022968273    3.77643198537302
C         2.20242761578858    9.68647440242517    4.61480209801896
C         1.37104451753777    8.61148854434489    4.37214263145553
C         0.78663078005566    7.91038110855534    5.44722888903025
H         0.13145912634118    7.07064134090401    5.25432304552093
C         1.03620713869567    8.27942385046896    6.73835206172564
H         0.57882188953334    7.74452990799896    7.55836381931944
C         1.90228198052483    9.35065999661106    7.02613593160539
C         2.17911626625315    9.71350866131629    8.36139102416429
H         1.69609911203418    9.15943292865481    9.15341918057799
C         3.03962270902573   10.73294277229848    8.64914132209893
H         3.24941902533430   11.00658819191277    9.67234513970232
C         3.66350462509953   11.42553828089152    7.60256451569267
H         4.35498746822441   12.22298460983500    7.83256895881262
C         3.40962013171617   11.10073962072416    6.29893079401188
H         3.92427047790942   11.65200812928045    5.52816074766693
C         2.51294648157917   10.06210347226590    5.95649409828709
C         4.09507191994768    9.63586642827943    3.03902995696087
H         4.66870625309410    9.38964775178076    3.92989579302616
H         4.73203598794989   10.20517444010390    2.36773611913906
H         3.80410467596656    8.70352275856375    2.54989472921873
C         0.86112125352557   11.54921952440776    2.76584534117017
H         0.09632654568417   11.61544047465978    1.99408271520948
H         1.28264346973071   12.55086203843069    2.93140111485730
H         0.39723217540847   11.21042724837059    3.69088204099969
C         2.52052330680991   11.09881827837006    1.13183334312802
H         3.18941154788268   10.35029743853284    0.71603810102990
H         3.07841452338832   12.02853568119147    1.31309569617472
H         1.74384401006790   11.29760538902983    0.39585433917439

