23
CSD_code = UFENOL | q = 0 | S = 0 | Stoichiometry = C11H8ClHgNO | MND = 2
Hg       -0.53534800165607    6.88127509196668    4.73551397212937
Cl       -1.51075241349250    5.59621444761086    6.43456521415477
O         0.25399734488555    5.51838798857621    1.76861250183194
N         0.95972768535373    4.86706452508056    3.89628976254460
C         0.39848186839782    7.70005567659533    2.93098645177522
C         0.67271353074739    6.84209815461795    1.86248075645502
C         1.32332653191652    7.30738453764952    0.72176366217893
H         1.49986289376535    6.61316909851253   -0.08587630186856
C         1.72118631749178    8.62605175894052    0.63089370648184
H         2.22581350961496    8.97659347076419   -0.25671918149491
C         1.46756366024801    9.48803116031381    1.68248507297310
H         1.77351963045857   10.52181441017685    1.62587178456842
C         0.81338793454127    9.02724282997215    2.81371970528113
H         0.61850386023619    9.72397389571170    3.61892376164150
C         0.48206920713995    4.56844082535240    2.69204113665687
C         0.20929823293208    3.25282783565444    2.29384607199072
H        -0.18720838389514    3.07771612151517    1.30727442579838
C         0.45746675727399    2.23234114534681    3.18358039452162
H         0.25204857563220    1.20846575955634    2.90926664704524
C         0.98389515717448    2.53984254836109    4.43433389906014
H         1.19892945627778    1.76838182076365    5.15511364872732
C         1.21104036486251    3.86471267606511    4.73921987455428
H         1.61707628010420    4.16311422088362    5.69601303298465

