64
CSD_code = UFEQED | q = 1 | S = 0 | Stoichiometry = C21H36BrFeN4O(1+) | MND = 6
Fe        6.06953162777611    4.09743216713364    3.47319171881658
Br        6.06525214774676    5.47633713522643    1.52181096615310
O         6.07248594301301    2.42763120764602    5.83145044164235
N         8.16951730142010    6.05267318537912    4.34018660462444
N         8.20074159979874    2.64235013771100    1.94798750905043
C         7.37356952096266    5.24576263706525    4.10660579660627
C         9.11402803683954    7.08715075992444    4.50851860287980
C         8.33772529065916    8.40426041933895    4.58040492501733
H         7.75776386245677    8.55369304498365    3.67216141151264
H         9.03465650857396    9.23010956426889    4.68764995198063
H         7.66316711373741    8.40660585367597    5.43395828891164
C        10.03585034244242    7.06020534739976    3.28668111150913
H        10.57984843867046    6.11943211005769    3.23631391850852
H        10.75350975224882    7.87222719146791    3.35593134781075
H         9.45879313441650    7.18170949010210    2.37223368955962
C         9.88869990892043    6.82440809922578    5.80004486143050
H         9.21818515976808    6.81375400958620    6.65658983755395
H        10.62480612677034    7.60931689872168    5.94655094408304
H        10.40628986939928    5.86878275979045    5.75171836813122
C         7.38382304782269    3.12058341368907    2.61359147730166
C         9.18858812212172    2.15890817259873    1.06432169354412
C        10.36648925197794    3.13464577274198    1.12471648755537
H        10.04769568484773    4.13362441448419    0.83445290010450
H        11.14462470940268    2.80623844748037    0.44206267783806
H        10.78095663041293    3.17313933118856    2.13010422857571
C         9.59982321784931    0.75958178942364    1.52297769316630
H        10.01027913247976    0.78848738467394    2.53005217730340
H        10.35765712046778    0.36703977314671    0.85132304069722
H         8.74656329197027    0.08480527179225    1.51440538639571
C         8.56976538255517    2.13102400305996   -0.33533137359692
H         7.73388396687364    1.43584549843925   -0.37151392784450
H         9.31686882524424    1.81222821850676   -1.05610467833026
H         8.21328216382024    3.12020152740354   -0.61526739378729
C         6.07206266919355    3.08576270991102    4.90358887636309
N         3.96851836308638    6.05205271675060    4.34034162026380
N         3.93782759684020    2.64218393333529    1.94792110904419
C         4.76473037007111    5.24462054573382    4.10908397320602
C         3.02456376823188    7.08686923412280    4.50935219575407
C         3.80170230678006    8.40340129004958    4.58262806820788
H         4.38052666764271    8.55400162940930    3.67387292577278
H         3.10548980004317    9.22952911609860    4.69230388976119
H         4.47745480673910    8.40374371270869    5.43522848695260
C         2.10311390545424    7.06157652346082    3.28724591208083
H         1.56084041827535    6.11995283091763    3.23418976967306
H         1.38396672134237    7.87208856586467    3.35863228331119
H         2.68014427937168    7.18656260579431    2.37329494267639
C         2.24921132280492    6.82360547264082    5.80039181663880
H         2.91931374768666    6.81217346438306    6.65723757834484
H         1.51323204482077    7.60858615997188    5.94714063433718
H         1.73138866330454    5.86817035650217    5.75115878012640
C         4.75500676442554    3.11849881099179    2.61474566283514
C         2.95021558591544    2.15875953110677    1.06403790856020
C         1.77320940020886    3.13569401268123    1.12230237577440
H         2.09257574320598    4.13341553882626    0.82843690744393
H         0.99429746068261    2.80560250241975    0.44138337725648
H         1.35953152261190    3.17786315227139    2.12785275603115
C         2.53723288565157    0.76032071356556    1.52395830767104
H         2.12709099244886    0.79062844182607    2.53112179195543
H         1.77868351540765    0.36819582401700    0.85288235816766
H         3.38960548741491    0.08440474914477    1.51571069378054
C         3.57022065862536    2.12880815936483   -0.33502775733956
H         4.40643584835361    1.43391931722042   -0.36950577344179
H         2.82372758090529    1.80851905251107   -1.05576698124372
H         3.92645686900588    3.11769428907268   -0.61632517468822

