31
CSD_code = UFIBER | q = 0 | S = 0 | Stoichiometry = C9H15ClNO2RhS2 | MND = 4
Rh        1.61121187338532    3.85269532572923   -0.30538020247450
Cl       -0.28225060530901    2.69429321120434   -0.56567237598628
S         2.68385164726130    1.95460059537678   -0.19567877324856
O         2.77909095953031    1.05422778023105   -1.32133920407743
C         4.43632287562886    2.27602432677071    0.33915372123077
H         4.79375510966879    1.40580133672274    0.88461375047923
H         4.99358003895147    2.37694199985487   -0.59179910449782
C         4.48032897454257    3.55153232387690    1.13467614010170
H         5.49033393336019    3.93766479266139    1.25543021616353
H         3.99401291726217    3.44233520647121    2.10382064396529
S         3.51787161956134    4.82428933325547    0.18739253110019
O         4.40854741382572    5.36455944210934   -0.82632816566411
N         0.57448519583288    5.51779864685562   -0.52862859001793
C         2.14615619874877    0.95258544670614    1.23029872528044
H         1.10010566751760    0.71683871584874    1.06170209553455
H         2.25269992211660    1.54784271001481    2.13102596143235
H         2.73505093647635    0.04422452117515    1.27294195871744
C         3.47361786361117    6.07547548244432    1.53286646292763
H         4.47893301031713    6.25137928221044    1.89607272992901
H         2.82521746331143    5.70319342075666    2.31837426441527
H         3.06818076331430    6.99134858275044    1.11674222715815
C         0.90886960424883    6.30997527971125   -1.55144970342819
H         1.84377757697947    6.08536883562250   -2.05612643190065
C         0.12083745080466    7.37134888649536   -1.95636347318142
H         0.42457764170427    7.97733834695915   -2.79502641890718
C        -1.05765281557324    7.63496055964831   -1.27292284966773
H        -1.69493204929653    8.45489968977277   -1.56671045610009
C        -1.39695050037128    6.81581542163509   -0.20848752975464
H        -2.30490268790626    6.97776862245981    0.35009886746082
C        -0.56057318072871    5.76519528808113    0.12735968448572
H        -0.81065481877679    5.08457658658784    0.93064329852375

