47
CSD_code = UFIFEV | q = 0 | S = 0 | Stoichiometry = C18H24Cl2NOV | MND = 4
V         0.79062870002694    4.91118271304437    1.91356521069923
Cl        0.55691042373310    4.00194033555188    0.07211803938149
Cl       -0.78040890336260    6.22226441052874    2.19911932835055
O         1.03104284206870    3.86462629301495    3.15932780033861
N         2.09768385359863    5.81026858395262    1.79863466131024
C         3.28228092531411    6.53545970019295    1.79449797677192
C         4.47289372740184    5.57368320807108    1.60014674075387
C         3.27425508934043    7.57444404466797    0.65681979106985
C         3.44270422625901    7.25944546908560    3.14738832190340
C         5.77478635920199    6.37151735506203    1.60919411702638
C         5.75812548992159    7.39813764916068    0.47680517384656
C         4.58490064976945    8.35745126418961    0.67595797535999
C         4.73299120593608    9.07613730150282    2.01684407349136
C         4.75055772421493    8.04754450538711    3.14750224444435
C         5.92390269020453    7.08806790301680    2.95091845133485
C         1.96097969764219    3.58046685349600    4.05567063726023
C         2.97617068471112    2.66272130906766    3.73606289153221
C         3.95962096136450    2.40652373341130    4.67863149376884
C         3.95095709948904    3.04471567891306    5.90720386165229
C         2.95724853946874    3.96118426146750    6.20644127079889
C         1.95524755500212    4.24725541745324    5.29278541346279
C         2.96063752036625    2.00636838274965    2.38893997350540
C         0.87487939385719    5.24882909657489    5.56626498830233
H         4.46270323686240    4.83915444954206    2.41015141426574
H         4.34568529047330    5.04622462964358    0.65122593619616
H         3.14590474691710    7.05132653577703   -0.29432388272448
H         2.41935871610043    8.24094290999317    0.79728874227323
H         2.58665000451739    7.92361037900352    3.29242348698601
H         3.44025569675964    6.51083102956307    3.94467862314963
H         6.61567756426586    5.68431914263153    1.46689989130852
H         6.69625671568379    7.95677492457184    0.46967907152452
H         5.66268961843522    6.88940525893922   -0.48431569292341
H         4.57381202359137    9.09425787231668   -0.13424345320758
H         5.65991533101921    9.65312592862633    2.02719052625630
H         3.90309262333583    9.77082772600225    2.15937526656944
H         4.85704340322807    8.56259867775691    4.10818397163776
H         5.94446884700993    6.35664691442442    3.76137043592430
H         6.86396159222266    7.64300645195315    2.97226162710575
H         4.74287206147617    1.70096496559994    4.44306128703271
H         4.72346120312006    2.83199433127211    6.63028862689895
H         2.95858360827898    4.46644414926603    7.16115904805695
H         2.84148704367290    2.76270144597346    1.60468691386954
H         3.87992146053810    1.45212622104067    2.21893347519259
H         2.11804378094438    1.31563334871523    2.31423861840712
H         0.83374306780877    5.98548747241251    4.75571074093101
H        -0.09747609072630    4.75388945527334    5.61287758192446
H         1.05039199893550    5.76027031013789    6.50885730697913

