113
CSD_code = UFINIH | q = 0 | S = 0 | Stoichiometry = C35H66CrO4Si7 | MND = 9
Si       -1.24109613203337    3.89341569161874    4.33638546709573
O        -2.28340991804974    4.12424562516077    5.59348031863306
H        -2.53742855291884    3.40578579753774    6.16962265824243
C         0.54360726168995    3.69338487073284    5.02958314590878
H         1.06433032343810    4.61804134461416    5.27678135688537
C         1.42947218368099    2.82544750234271    4.20061729926583
H         2.48526530532892    3.08703896525078    4.18458607748419
C         1.00322172694796    1.84894702121756    3.33825155624419
H         1.73322070602106    1.34395841590057    2.71305121229606
C        -0.35748169474297    1.40442546003417    3.26236045849656
H        -0.54453576240871    0.51282218270215    2.66651720247441
C        -1.39765705268648    2.06718414514843    3.86880940311922
H        -2.38490293867371    1.63648463718242    3.73250141234736
Cr        0.27413772984065    1.31183253718193    5.38237853407417
H         0.37884878234582    3.17714378944211    6.01866154163323
C         1.60640834022143    0.98768318613776    6.59420896172862
C         0.35569762498742   -0.49848716840683    5.32824623130272
C        -0.95257709573080    0.87278721763234    6.65621187872487
O         2.41307183682857    0.62742572116524    7.33770302927116
O         0.42933132417407   -1.64940115192601    5.41119280273608
O        -1.72419297826119    0.50930084408270    7.43854701418252
C        -1.51933078360331    5.34913382243084    3.16113450619515
C        -1.41340759300535    6.65884561919629    3.66243915198079
C        -1.72649813408568    7.73860247745384    2.84985555872230
H        -1.64705161229008    8.73274395131426    3.25810100523750
C        -2.14078297958756    7.57317117391982    1.53630838651465
C        -2.21097454091102    6.27958612491205    1.04800505843311
H        -2.51668153522411    6.11542267053691    0.02759135738270
C        -1.90482595399017    5.17276842360364    1.82566571448840
C        -0.96787073762561    6.93408800239068    5.05953289433415
H        -0.78486661412409    5.97806202480319    5.54741152004266
C        -2.49502830363487    8.72337448979509    0.65476014957749
H        -2.67131375375152    8.30763615099864   -0.34364702298755
C        -1.99197576210604    3.83307797144723    1.17323286584837
H        -1.68570773024673    3.08224127418913    1.90028245003887
Si        0.74630529339157    7.80588053655654    5.08911211739646
Si       -2.42368964990831    7.65039773611204    6.10199450010978
Si       -1.01541783824175    9.93036246993817    0.42159159674002
Si       -4.20696314124533    9.44931411796470    1.15687790839018
Si       -0.65300194324693    3.69881423469410   -0.20046252541961
Si       -3.83017661718972    3.38499208790793    0.82853332345778
C         1.91491660828372    6.87330810360517    3.88674652325860
H         1.35343950346112    6.26784474106481    3.18128633780091
H         2.60465507126122    6.21853127457771    4.41129568575176
H         2.51811331678087    7.56787009162973    3.30987995026215
C         1.42639005124171    7.66405849068403    6.86866079824685
H         2.47312573302127    7.94868990232899    6.90931251368351
H         1.34691933461468    6.65443882739684    7.25946155737675
H         0.88694329725288    8.31802244472022    7.54559047052960
C         0.80202601001775    9.64505541563136    4.58890932619305
H         0.08963219843121   10.24500020216319    5.14290171103100
H         0.60663411188990    9.78048919913860    3.53092582454389
H         1.79022028836503   10.05000063451332    4.78987000685174
C        -2.42896894586139    9.55551726461825    6.24385952733318
H        -2.34966707921082   10.04994286799404    5.28248331732349
H        -1.61028273059798    9.90254165657456    6.86602962056411
H        -3.35151229731931    9.89351034500256    6.70587109910009
C        -2.26029646572167    6.94616028863564    7.86808995333963
H        -3.05013449598594    7.31659266721453    8.51372635119953
H        -1.31334727721802    7.21617065195274    8.32340614145071
H        -2.32496701411050    5.86348085497294    7.85834511946289
C        -4.06023225755747    7.03915634227301    5.33891958840787
H        -4.92221724676013    7.36258352602205    5.91439668158281
H        -4.06537144330138    5.95478823478394    5.30761106708487
H        -4.18764277792718    7.39204800136207    4.32048507691962
C         0.60427616253242    8.93356291098919    0.59668162779408
H         0.69972350639174    8.20841898929580   -0.20628177422474
H         0.63276421459060    8.38433742042574    1.53199116715192
H         1.47785945515339    9.57754029066776    0.56021260738945
C        -1.01730254318266   11.41307879726657    1.62282324477628
H        -0.08617769861759   11.96702350575349    1.54799499909859
H        -1.13336929825252   11.11118150114442    2.65752686779743
H        -1.82319796593160   12.10100067801279    1.38753728082597
C        -1.09564038636769   10.62843996597462   -1.35426884390094
H        -2.01767419393090   11.17245891755922   -1.52795784828229
H        -1.03719600964526    9.83853671851221   -2.09656869546940
H        -0.27338622604400   11.31179468247583   -1.54167117912934
C        -4.27061593457913   10.28585020074476    2.86702938462334
H        -5.26836501458883   10.67134507307646    3.05641849151782
H        -3.58304727104221   11.12088637016519    2.93963536357295
H        -4.03646232868534    9.58775202043392    3.66266757947182
C        -4.73617495906637   10.72540489306282   -0.16036160284393
H        -4.65329430191390   10.32454667167916   -1.16532690626472
H        -4.12728239390592   11.62201688533907   -0.11216677578175
H        -5.76876436088804   11.02537247834971   -0.01340312999015
C        -5.44688036305980    7.99589953235245    1.15757412301998
H        -6.40262929027607    8.28518715016263    1.58340137370510
H        -5.06659541220923    7.16095352255825    1.73840963357714
H        -5.63659134144760    7.63325528996437    0.15185777331039
C         0.95710746864836    4.39010061657917    0.56285752428416
H         1.20737283992895    3.87813670063030    1.48742020153241
H         0.84967313908958    5.44584568510539    0.79322117183085
H         1.80258836843524    4.28468217638496   -0.11022722563240
C        -0.40418558723488    1.85984805958887   -0.64418742516775
H         0.47253981306207    1.72895288486296   -1.27054682302761
H        -1.25381444581252    1.46211692054490   -1.18809109104617
H        -0.26717644700779    1.24779888093198    0.24051400931697
C        -0.98738572484231    4.65246131948250   -1.81939830168558
H        -0.94467910510321    5.72624444315362   -1.67102382154329
H        -1.95678743105279    4.41201646042090   -2.24223151704439
H        -0.23796115169314    4.39775537905108   -2.56312527887380
C        -3.94947729111978    1.50686463030174    0.50706196551254
H        -3.36636385293657    0.93629241766332    1.22222499278460
H        -3.59386516955144    1.24770318203295   -0.48435506157093
H        -4.97774916427528    1.16745712216755    0.58055959519816
C        -4.64558845053345    4.28801600918219   -0.64052208466047
H        -5.66921415073283    3.94710443675814   -0.76454539671204
H        -4.12662374267341    4.09758865044093   -1.57409589659950
H        -4.67762646404031    5.36090092344650   -0.48715328306942
C        -4.79380273455623    3.82189672053072    2.41829647576758
H        -4.65779036061837    4.86727602157682    2.67737493413863
H        -4.44889798946361    3.23789781254191    3.26578711721368
H        -5.85911499336066    3.64431405686829    2.30764812937684

