73
CSD_code = UFIPIJ | q = 0 | S = 0 | Stoichiometry = C36H26FeN8S2 | MND = 6
Fe        6.50933523494424    4.19497229006855    5.32627801880384
S         5.50898274149776    6.44369534162878    1.59931656834422
N         4.61383775508504    4.17046413462444    5.09159406218147
N         5.68698166587702    0.95689647772295    1.94187131981358
N         6.44573082549056    2.96011209468580    3.92925648367905
N         6.56697118423388    5.54653461298636    3.98323432071392
C         4.22111798551329    3.54433389719930    3.95699060141514
C         2.87678179529297    3.48974852574370    3.57828966528438
C         1.93284010795902    4.10681073871858    4.37024795234389
C         2.35091211514724    4.76089559471872    5.52634151199979
C         3.69419277886811    4.76211386152222    5.84440625821887
C         5.31346239264236    2.89570588954667    3.28054413861932
C         5.16344063356595    2.17895725032551    2.00445522175273
C         4.55090936457201    2.79308576425454    0.91075557152191
C         4.48155534205779    2.09158121147701   -0.28006020120731
C         5.01392506545045    0.81210353173126   -0.33938740981772
C         5.60914038259682    0.29713119098395    0.80280623467363
C         7.61439944747190    2.39848645762287    3.41196996400840
C         8.15202344556306    2.86619960963518    2.21478371165765
C         9.36644105316976    2.38100567006654    1.76954654507231
C        10.04956919748133    1.42603816212846    2.50424561440609
C         9.51372222830730    0.95747755553108    3.69284732045244
C         8.30461397549299    1.44215747971128    4.15194772745180
C         6.08705815661414    5.93772701471427    2.98254345523276
H         2.59588472890365    2.96580727944786    2.67849610014596
H         0.88880414507854    4.08518618283087    4.09811887502028
H         1.64371198241470    5.26299513449459    6.16602509758536
H         4.06942910330668    5.26270132258708    6.72404048372448
H         4.18826274276830    3.80613435922850    0.98814609979363
H         4.02571518121905    2.54011081869394   -1.15055405230033
H         4.97697844533361    0.23356220291262   -1.24894220538766
H         6.04816771147988   -0.69184909918995    0.81204132068133
H         7.62143629614453    3.62636390892120    1.66074179283954
H         9.78141604212209    2.75175712952248    0.84411923653947
H        10.99749847021497    1.04847396194991    2.15148599299406
H        10.04201743503399    0.21069911407011    4.26698736821008
H         7.87984455472432    1.08298527208619    5.07692892378357
S         7.51109179073790    6.44355328798670    9.05415610162362
N         8.40471198019993    4.16851629535393    5.56214439196748
N         7.32416351363529    0.95866881073324    8.71411122682818
N         6.57111358879167    2.95852890473809    6.72170600390653
N         6.45309090237783    5.54509253893106    6.67071466141393
C         8.79537675556278    3.54376053485594    6.69827905658390
C        10.13901678249421    3.48973033080195    7.07950752988578
C        11.08440299524736    4.10561666252623    6.28833943951407
C        10.66847806996669    4.75792464575267    5.13047021738150
C         9.32573322095527    4.75892524136950    4.81007302584862
C         7.70194661083263    2.89512830350830    7.37305709857475
C         7.84889126405306    2.18016763517232    8.65045048567544
C         8.45881279002285    2.79607655568442    9.74463332211912
C         8.52391950033799    2.09711223066253   10.93717482393938
C         7.99017477785201    0.81826381729315   10.99770904887516
C         7.39804319995492    0.30128887795478    9.85481495479968
C         5.40171118517231    2.39473193899043    7.23499551111214
C         4.85821255930569    2.86229066841788    8.42956243206610
C         3.64294946472752    2.37496301331863    8.87014970122195
C         2.96478114333730    1.41808175381848    8.13335092275434
C         3.50653303034236    0.94962235249094    6.94739511991563
C         4.71656733283466    1.43635731975550    6.49294574215784
C         6.93298309128547    5.93673100261736    7.67125772289402
H        10.41825092998555    2.96713478652268    7.98059692775885
H        12.12794021075055    4.08438277485309    6.56241464047088
H        11.37689788153243    5.25890130845092    4.49125107748561
H         8.95211287225703    5.25832223257305    3.92906903787724
H         8.82247568831457    3.80867950796235    9.66623811104559
H         8.97745558895034    2.54719134944414   11.80807207737002
H         8.02371627703221    0.24174332346760   11.90867826039037
H         6.95817642752637   -0.68732754207272    9.84639144029723
H         5.38510679571508    3.62383244431094    8.98523301541509
H         3.22340078685495    2.74554064715466    9.79358079711047
H         2.01613630358650    1.03889880937965    8.48244049683000
H         2.98216211431642    0.20130700568584    6.37166335697284
H         5.14585085951940    1.07729868460536    5.57001252966796

