124
CSD_code = UFIQIL | q = 0 | S = 0 | Stoichiometry = C49H69N5Ni | MND = 3
Ni        8.98775805743820   15.05940726843469    4.03780287535491
N        10.21979728954939   16.04388300349848    3.36030148582520
N         5.90748960647205   15.52843131806481    4.11267254346009
N         7.01557514633763   15.34308640529199    5.95266133470559
C        12.92845969675391   15.19089388371001    4.02079000367939
C         5.58479288969237   15.45666731493735    2.68142221106466
C         9.27136441270816   18.21478991306117    0.81757332287112
N         9.48941587722495   12.23896943022188    5.20630446536679
C         5.71082218584586   15.58367404251711    6.31444148360112
C         5.00651992314937   15.70051858966910    5.15496813168466
C         7.14911876161999   15.30835008949756    4.60264590704999
C         8.13509743376937   15.07285950858009    6.82142821939019
H         8.89984704788532   15.85094868159823    6.66561000958559
H         7.81093771365618   15.07087125185109    7.86201763431785
C         7.50069270774053   19.52284275491759    2.51769480691404
H         6.80355536557405   20.03061752973640    3.16976087378021
C         9.14270730814900   13.54700641592856    5.21636409578648
C        12.57250981274844   16.54084587451366    3.51804585551886
C        13.16738802963328   13.60608710819955    5.81169744811430
H        13.05681951358242   13.32820979254670    6.84891487690375
N         8.70891141484119   13.79780374655069    6.47634284822238
C         9.27195398913765   11.68054304904144    6.45921364058013
C        10.22485796316053   17.48082552269496   -0.09705058395103
H        11.22704606310682   17.55102235503402    0.33622092318883
C         9.64969768246747   18.51962695007111    2.13022156406626
C         9.16976698476321   19.50946353440688    4.40139206333871
H        10.24153361571531   19.31041611409694    4.50003285155523
C        13.58723763667665   17.45720230956163    3.31569643362193
H        14.59798377026497   17.16399649356142    3.57285495741611
C         8.76545116515609   19.18766209517608    2.98104922326117
C         9.82844942323424   11.51233150463285    3.97421429343632
C        11.22117661855346   16.86208958184130    3.18359388993290
C        12.04770397280101   19.04497731705968    2.44061261066849
H        11.82906367807320   20.01291947458399    2.00727516412608
C        12.74828119998605   14.85236291682223    5.36946506922880
C        12.15720599089518   15.86762715023540    6.32429248575861
H        11.32142559056897   16.35307511981598    5.80578723046842
C        11.01008159356353   18.15243650139806    2.59702653432557
C         4.70772664258917   16.63922327911141    2.25508460818639
H         5.07879751815195   17.55491069890298    2.70853790254210
H         3.66336700759450   16.50230628491003    2.51356480824436
H         4.76972990742440   16.75455467744291    1.17641818036786
C        13.74712346531416   14.62852837113222    1.68404551055801
H        13.35335371656402   15.63250764374697    1.50505315892150
C         7.12025037128038   19.21903083846244    1.22455007388462
H         6.13468046861668   19.49117676904128    0.87095137700323
C         8.39415466931293   12.66905221000434    8.69484341704587
H         8.60900083425269   11.70512882181290    9.14575486138998
H         7.32816960953821   12.86923847133458    8.81422426907968
H         8.95280733913400   13.42981006226222    9.24070930067723
C        10.28593429681487   12.49350657881950    2.89636063989431
H         9.54465896720283   13.28687510992562    2.72941990583160
H        10.43110386097979   11.95890829774018    1.96115922124128
H        11.22247185000331   12.96083802020075    3.18981350253399
C         8.77975861139300   12.66684457166287    7.25783836755450
C         8.00218577986851   18.56818607577144    0.38175071969116
H         7.69183975417541   18.33316137642644   -0.62571308211006
C        13.92044767243809   13.03655492034834    3.61301091714555
H        14.38104099140033   12.32466413319099    2.94293455307566
C        13.34601751111286   18.72160914033196    2.80539703289933
H        14.15052547357739   19.42972140452882    2.67683328001968
C         3.54968902399452   15.99075892007097    5.04232667406973
H         3.08255102958461   15.84685043204392    6.01357955931484
H         3.05341305728912   15.33133770977958    4.33531921722708
H         3.37804833054652   17.02203565294944    4.73636924276465
C         6.86779588363559   15.52114878913292    1.85417095509111
H         7.35517947365055   16.48499952003710    1.97965968650258
H         6.62724636903907   15.38716895293860    0.80286712790358
H         7.57158107548663   14.73445945834461    2.14586165384272
C        13.51657036207185   14.27756058436110    3.13748455735347
C         9.54078788510510   10.27492777922834    6.87111725395107
H         9.13158087226377   10.11220389832526    7.86511075729204
H        10.60989111352654   10.07376652646749    6.90988316606506
H         9.07417617511632    9.55839403409938    6.19924013993475
C         5.28622862283156   15.70217780360896    7.73527065466903
H         4.23313894284088   15.95918430818862    7.79485718003125
H         5.85427606397468   16.48318864372022    8.24103196542983
H         5.43735923049300   14.76311378983515    8.26997010592316
C        13.19918080466277   16.93470121059850    6.67548467513999
H        13.51011391539119   17.47799086427988    5.78860910341393
H        14.07535556650628   16.46872673233058    7.12408870224766
H        12.78293713082394   17.64607689225978    7.38704088905982
C        13.75220956003156   12.70319725212374    4.94190578919951
H        14.09296736374736   11.74293324036583    5.30748036857482
C        13.01053452812834   13.67065160581259    0.74673896553092
H        13.21930207887833   13.93283834964262   -0.28885243537560
H        11.93894240231777   13.74215475374754    0.91090902340354
H        13.32233732829692   12.64076562180551    0.90702466572610
C         4.89261254824696   14.11409410614509    2.40999803750364
H         3.98474609913134   13.99576962969339    2.99555920483845
H         5.56715731994091   13.29701570460323    2.65809237445145
H         4.63232454673572   14.04098283454315    1.35761944388988
C        15.24579560583069   14.64553072082848    1.37392132508550
H        15.76106543161813   15.33481423180626    2.03903891371933
H        15.41412046339295   14.96754001351136    0.34804445515711
H        15.68300675069767   13.65723165167266    1.49961437159068
C        11.62642433867714   15.25427233320852    7.62080620066986
H        10.99464066123977   14.39413570423272    7.41652873693589
H        11.04377000684689   15.99535902179733    8.16717456728118
H        12.44569436510092   14.93997369430697    8.26491328686196
C         8.42980647420760   18.57510005517243    5.35924240573186
H         8.77844760414966   18.71334699617017    6.38186623347763
H         8.61754856853975   17.54272891523670    5.04951283925570
H         7.35585436218446   18.75478510363276    5.32885739095036
C         8.55793162414438   10.79691669968595    3.49568015858418
H         7.78858708345181   11.53306745992498    3.27032416481103
H         8.17044667945590   10.11649114780566    4.25033028945101
H         8.76940113278324   10.22732706839291    2.59493215649330
C         8.92748007218809   20.97658795887832    4.75548121632970
H         9.42568651778175   21.62416581693295    4.03740820412047
H         9.32390426116253   21.19159866468155    5.74633684757478
H         7.86639615461232   21.21626278004936    4.75628420225202
C        10.97693345362439   10.52266455565073    4.19653529449263
H        10.64955736486964    9.59203374819679    4.64686487128068
H        11.74394405727827   10.98199804035946    4.81440155517132
H        11.42485932086964   10.28312173137049    3.23572618151367
C         9.84302776502408   16.00010367819543   -0.15505363974309
H         9.82780431648812   15.58656169626235    0.85194742136006
H        10.56440931062725   15.44634570716474   -0.75228097190334
H         8.85649014787957   15.87678907070998   -0.59795577892932
C        10.27716399374195   18.08817826549615   -1.49912450562283
H        10.45963335503146   19.15930295963183   -1.44274644610290
H         9.34822676088830   17.92366629902102   -2.04053303028374
H        11.08316384007263   17.63104293876828   -2.06999893166301

