71
CSD_code = UFIQUW | q = 0 | S = 0 | Stoichiometry = C23H43BrCuNP2 | MND = 3
Br        4.76765211399625    4.31283303758127    2.09150309431792
Cu        5.24423341537661    6.11739992184592    3.49339250733474
P         7.46479893635986    6.62420469373833    3.52266218834720
P         3.37778137876436    6.92273657584087    4.52078700273493
N         5.87298075390649    8.08261221250267    5.47916872192547
C         7.06018964719004    8.65163988339267    5.31484612206174
C         7.26003090776119   10.01011884898956    5.53022114890368
H         8.23611554998717   10.45157133238978    5.39539103523449
C         6.18001958466283   10.78067938387082    5.92917881977613
H         6.30122807736325   11.83904607211008    6.10857250438689
C         4.94293875964032   10.17961493622487    6.09533571135006
H         4.08440628713939   10.75519322554065    6.40751951594497
C         4.83337928736825    8.81443321470850    5.85845646025050
C         8.13201079818094    7.70557003039886    4.89155263263143
H         8.33323115370618    7.03499694838492    5.73058304601283
H         9.05471773070535    8.21635627311504    4.61350291325502
C         8.53576130796088    5.08039539776283    3.76512251042855
C         7.77458417847478    4.30470385337016    4.84880028617132
H         6.80922974027417    3.97833826321849    4.46510839516219
H         7.60042477188135    4.91406772636936    5.73665920355946
H         8.33366874612614    3.41930076300897    5.14686980789615
C         9.97155133536705    5.33508400889905    4.22570949958257
H        10.49674429131574    4.38117970446733    4.26944435190170
H        10.01196618175653    5.77578659424427    5.21914066261560
H        10.51037406338104    5.97907776804186    3.53731927206277
C         8.54689390400070    4.23337075789335    2.49325337245595
H         9.18643180571088    4.66609874592160    1.72781218499279
H         7.54189323851077    4.11480743387209    2.09384426649784
H         8.92829826579439    3.23894292943921    2.72219443923668
C         7.98469676486711    7.58708379963966    1.97624470023563
C         7.38306133182556    8.98576868682804    2.15600526393102
H         7.94160350787971    9.57777354409266    2.87723952089334
H         6.34923166743420    8.91465466189719    2.49876000133942
H         7.38574735583623    9.51933335826400    1.20630316696267
C         9.48327124607152    7.70719270226337    1.71929379885144
H         9.64678003598199    8.37873221790437    0.87645276439515
H         9.92045536821696    6.74554229508457    1.46522593475348
H        10.00930819430448    8.12057980450256    2.57812880595422
C         7.29585684142281    6.92511798801203    0.78073723983142
H         7.43043995523911    7.53188656449823   -0.11397943569920
H         6.22596095167860    6.82783545481256    0.96335872184392
H         7.69166247820012    5.93440175278402    0.58009218225804
C         3.56836735383320    8.03928545438356    6.00582173662914
H         2.70099952600570    8.68095363793894    6.16526316683478
H         3.68450137858971    7.37488083561526    6.86548087869991
C         2.34541632159848    8.00045704694733    3.35394584469861
C         2.30579091695659    7.28902339677844    1.99966793049467
H         1.72836566978037    6.37066164208676    2.03899442382957
H         3.31399795109275    7.03721881682257    1.67180015742851
H         1.85982156847918    7.93825586311812    1.24704255806753
C         0.93030659689572    8.33991096642702    3.81048580657744
H         0.49314975091544    9.05395957130133    3.11248994644185
H         0.92247860102228    8.79672887258730    4.79867796909248
H         0.29538560243385    7.45826595775335    3.82255491425297
C         3.15308576602143    9.29292068391741    3.18691643396788
H         2.78953165226646    9.85363878317330    2.32665587632197
H         4.20686164942333    9.06396347072700    3.01805498670670
H         3.07931972360963    9.93320061107728    4.06279335911539
C         2.33585263135969    5.53468491863535    5.28033024736278
C         1.32348859426648    5.97010113515273    6.34063901120764
H         0.62780197695617    6.71070479164632    5.95780164353605
H         1.80617076838053    6.37164877218544    7.22860049965472
H         0.74607064754246    5.09857068514905    6.64829133656657
C         3.39508402458065    4.62533836833168    5.91804002534111
H         2.91969689991123    3.81822403390609    6.47300166077874
H         4.04270064259886    5.17562599926215    6.60211800676242
H         4.01798828397453    4.17910564069178    5.14437308082036
C         1.62411070385640    4.74092840701192    4.18556097998889
H         2.30528470197194    4.49840748706233    3.37264198128741
H         0.77054617532345    5.28342424456543    3.78642550737793
H         1.25791200878803    3.80144653796724    4.59791568758418

