63
CSD_code = UFIRIL | q = 0 | S = 0 | Stoichiometry = C31H27BrCuNP2 | MND = 4
Br        2.97118062092676    0.81652848411801    3.76809598187023
Cu        2.91364069700497    3.01341070962284    3.13805128848731
P         1.02071093391138    3.93793465391724    4.09804461445093
P         4.52169136582931    4.24389021622093    2.12553231434649
N         3.71412208244387    4.41851764156918    4.84841809216502
C        -0.60984888340114    3.15649499248742    4.29938364133206
C        -1.78887966619964    3.77119485365983    3.88903626125391
C        -2.99052531856655    3.09450731223464    3.98823007144095
C        -3.02334701389782    1.79778789505188    4.47464156176848
C        -1.84641735009221    1.16843810002138    4.84766235891059
C        -0.64154933614392    1.83846569117057    4.75390398203146
C         0.63134711101355    5.72221277419903    4.03342978022843
C        -0.12990399371520    6.37537345850311    4.99813824999165
C        -0.33637215678523    7.73849900612584    4.90620161406844
C         0.21214726956028    8.45947263476113    3.85606910317391
C         0.96242217375236    7.81393413604602    2.88851447584254
C         1.16930236164554    6.44901544741279    2.97901987303779
C         4.33358217898918    5.86831582140247    1.32664595585414
C         4.40481102907563    7.06585998909030    2.03155083195943
C         4.15966491764537    8.26510083253312    1.38649898036692
C         3.82388442729666    8.28051111867779    0.04300018380050
C         3.71971250599545    7.08803250807759   -0.65706826154820
C         3.96372566467849    5.88852899031813   -0.01814183979119
C         5.69866190878948    3.40652675280797    1.01259625649657
C         6.66375736722918    4.08478448475484    0.27436634220095
C         7.54163662699955    3.37426639957928   -0.52250373352034
C         7.46614361205595    1.99116941222973   -0.58490994925582
C         6.51038538982867    1.31289974839806    0.15275997141966
C         5.62584534893979    2.01860731676243    0.94838447284065
C         1.64956991783741    3.84932334941727    5.85189572855824
C         2.90327303236847    4.65630003594628    5.86963913677964
C         3.21954463777340    5.61341790615559    6.82611310685141
C         4.41536010905774    6.30203341921229    6.69666150912986
C         5.26175997204404    6.02127129896228    5.63457684942281
C         4.86820341007592    5.05301292312029    4.71886042709971
C         5.67559867881775    4.63024909483826    3.53172129115327
H        -1.76463751228076    4.77851224942532    3.49596123647635
H        -3.90495001255225    3.58009389731145    3.67888349514197
H        -3.96478179213502    1.27395301061475    4.54957614124264
H        -1.86452807989933    0.14937277684648    5.20349283986663
H         0.27673569633042    1.33007879061914    5.01290386901568
H        -0.57311692190551    5.81499551048867    5.80992709711004
H        -0.92989789298092    8.24348406619456    5.65481565858510
H         0.04803832835796    9.52511632499992    3.79167716588283
H         1.38682174775148    8.36881778416514    2.06462769405208
H         1.75244265413108    5.93189453500871    2.22649858610329
H         4.64296028914549    7.06526600905877    3.08586819571503
H         4.22888306858919    9.19182581663289    1.93821750444096
H         3.63519919240255    9.21908913530355   -0.45685012126310
H         3.44551332101477    7.09612621930582   -1.70172622446497
H         3.88046273944780    4.95305852479609   -0.55645725523611
H         6.72146531287660    5.16394434559078    0.31904073949288
H         8.28928728189514    3.90117182037535   -1.09781727578717
H         8.15451326252732    1.44359374404491   -1.21162948364795
H         6.44923590968147    0.23614279941203    0.10774033399430
H         4.87446297519783    1.49475266656176    1.52467424850131
H         0.91191968987631    4.19414245079376    6.57948094467166
H         1.88447909418169    2.79719937583370    6.04791496503781
H         2.54811274227175    5.81303594619803    7.64649428720666
H         4.68851786133996    7.05522278432255    7.42126041969626
H         6.20081799578005    6.54072259264563    5.51798384774627
H         6.17167543967063    3.67962696361433    3.76406682449160
H         6.43652597655364    5.36237045046434    3.24815374178965

