115
CSD_code = UFISUA | q = 0 | S = 0 | Stoichiometry = C61H47N5OZn | MND = 5
C         2.63443199914257    8.09561034843926   17.73494742844401
H         2.42176123870249    8.49668815645988   18.71542857487431
C         2.09418210480788    8.69407503182835   16.60899569388104
H         1.46056543772803    9.56342923240066   16.70789657918143
C         3.44452150267198    6.98018289110671   17.60932889296344
H         3.85887351859547    6.51500538174486   18.49343197065821
C         2.37004444064636    8.16987620404647   15.35664283873214
H         1.95008115623963    8.62049495641801   14.46839116128998
C         3.18855758843434    7.06047718845449   15.23244575150917
H         3.39496905120632    6.65240521907140   14.25798863369871
C         3.73428776534276    6.45397177605073   16.35677859768631
C         4.64474102948652    5.25637939243394   16.23087224071425
H         5.67573248082759    5.61772288015841   16.14564289929754
H         4.57407086973891    4.65494300417616   17.15341157936126
C         3.03929799250932    3.86521207722933   15.03163421630118
H         2.84984037922997    3.48074988478566   14.02745786500989
H         2.30208310915678    4.63938048502413   15.25536740116774
C         2.95798881779662    2.75354972066600   16.04602644096786
C         2.45640926017553    2.99376643775913   17.31984153758642
H         2.04613874715057    3.96684885797296   17.55552269943897
C         2.47506216877909    1.99959159369056   18.28271808306541
H         2.08328952956372    2.19885779048367   19.26985511653050
C         2.99899381742257    0.75376801101461   17.98307525923339
H         3.01790601856884   -0.02102359986310   18.73531299834731
C         3.49629019397037    0.50383083894874   16.71487425935111
H         3.90260826724717   -0.46787265231842   16.47517411738440
C         3.47661066172107    1.49768968621889   15.75324841148713
H         3.86730086420520    1.30188666746582   14.76524390404770
C         5.39056124234603    3.69542567883845   14.51096689575698
C         6.36041186601737    3.09047024854704   15.30480800926471
H         6.33902616520100    3.22488293052940   16.37606873493803
C         7.34223159301921    2.29728758620679   14.73724492685808
H         8.08399148703292    1.83181641498787   15.36988334942483
C         7.36589799839605    2.08766674092623   13.36995805593047
H         8.12563466832717    1.46031906987252   12.92821989022828
C         6.42020134811240    2.70216396275206   12.56609218284190
H         6.45079758443973    2.57549972450814   11.49337369564990
C         5.44381346239022    3.51641130736347   13.11833356416462
C         4.48909442360314    4.26409116280940   12.26897466743785
C         3.49960230923855    3.56443658504497   11.58251504399836
C         3.38132102983282    2.13162249250859   11.56607140523625
H         4.02022391195894    1.45216258579456   12.09718679543462
C         2.33854018056216    1.83693884234567   10.75440985114618
H         1.94798547288381    0.86929666167276   10.50472728362059
C         1.81167566185190    3.09112445677805   10.28763886379490
C         0.70855827333245    3.21437197071653    9.44059627294563
C         0.11244813233788    1.97252134193738    8.90516591015714
C         0.85769030907502    1.12822273556490    8.08717278360756
H         1.87495900026866    1.39611769885339    7.84108740131187
C         0.30000855738530   -0.03199237695913    7.58215202177068
H         0.88675937093574   -0.67598766277577    6.94318090076663
C        -1.00730296464779   -0.36864061706022    7.89173945031053
H        -1.44194235863928   -1.27551556514902    7.49779268100404
C        -1.75517465668086    0.46291044195105    8.70838838893042
H        -2.77475421956644    0.20377343108187    8.95525349105910
C        -1.20084459464044    1.62622950351972    9.21022052781067
H        -1.78396111985235    2.27205642028241    9.85164618170890
C         0.12243673642155    4.42798248153543    9.07608167153562
C        -0.97435300095221    4.55186388292637    8.15487776981554
H        -1.43005120824289    3.74006675619921    7.62181877243377
C        -1.27871837951914    5.86886650410951    8.08753096897926
H        -2.03107438046731    6.34252719047858    7.48722331098783
C        -0.36307532002132    6.55117565607457    8.96133754317883
C        -0.35015161572669    7.93303301848956    9.15636334873796
C        -1.42507119621976    8.72135733710635    8.51825005233556
C        -1.12369066932311    9.68477586755134    7.55975382251298
H        -0.09253565196142    9.84661059382511    7.28089236646378
C        -2.13169953833282   10.41562655776834    6.95807486810564
H        -1.88540421845173   11.15664367292424    6.21134961414100
C        -3.45391935250945   10.19877557488605    7.30862732281361
H        -4.24048246929658   10.77119724788926    6.83930062010922
C        -3.76335575942446    9.24372629412495    8.26258473087744
H        -4.79329067622113    9.07161269290145    8.54061587970937
C        -2.75714724723958    8.50775700641339    8.86112132031357
H        -2.99672406367856    7.76518148351817    9.60893208390372
C         0.61908190344297    8.62357558689411    9.88530616413993
C         0.59939147550030   10.04271649771778   10.11873255693537
H        -0.17903682588049   10.71177636900740    9.80650737322598
C         1.72318662451874   10.33758186345168   10.81243480203316
H         2.04179560208724   11.29496536394739   11.17715446744089
C         2.42803850052257    9.09854445724808   11.00461740421985
C         3.65419498591341    8.98646714381665   11.66340450879584
C         4.31247743443334   10.23288678891370   12.10729043082444
C         4.68348143540055   11.20147658386517   11.17841200136614
H         4.49553635805044   11.02543333705724   10.12905209744004
C         5.29920934424507   12.36952139631199   11.58914110992990
H         5.58699776639900   13.11095840582169   10.85776822386699
C         5.54729951009678   12.58995628271978   12.93380536269288
H         6.02538659987903   13.50400861553090   13.25430557138442
C         5.18002846210730   11.63286289330622   13.86491678015592
H         5.36880153850224   11.79969139474077   14.91571984784559
C         4.57030323655048   10.46052771169040   13.45655338266518
H         4.27911653993277    9.71818205609413   14.18569182798481
C         4.28890043343047    7.77759198288698   11.94825396183436
C         5.56100322719012    7.66090845227409   12.61065914553216
H         6.19743207841706    8.48171960546265   12.87843990087726
C         5.77828060596799    6.33958930492928   12.80354655787859
H         6.62539977943369    5.86560828006679   13.26020932123260
C         4.64897940439589    5.64940314328454   12.24094875684885
C         0.13313294866765    5.41078015404407   13.27312965108870
C        -0.31556135695821    5.77265989472888   14.66271306980168
H         0.33224029783015    6.53482718540848   15.08964963898673
H        -0.33437980311466    4.89046800285149   15.29820787977151
H        -1.33013479177235    6.16534887453667   14.60631458086153
C        -0.47819240155440    4.16786843884071   12.70211858525353
H        -0.56599459167826    4.26018655714023   11.62255950834745
H        -1.44174251420513    3.94724148295623   13.15193312677873
H         0.19743395991085    3.33618183101909   12.90324938170458
Zn        2.04577333227209    6.10508911860066   10.77041291772872
O         0.93534113116900    6.08880276581790   12.67076164912226
N         4.35569795008314    4.49503183636482   15.03433763796262
N         2.52240637525861    4.11725641901719   10.81913229193755
N         0.48132593013270    5.65609834746945    9.53447917808973
N         1.72188864165730    8.07800120491116   10.45642692036603
N         3.78399273731715    6.54204331516439   11.70074197873987

