91
CSD_code = UFIYOA | q = 0 | S = 0 | Stoichiometry = C33H49ClN2O3P2Pd | MND = 4
Pd        0.07213365361241    6.10407212295368    3.86720311549850
Cl       -1.02844396490449    7.24954102199853    5.46126417570879
P         2.93238895924056    8.01468429945638    2.97736344996034
P         1.43126229761611    4.95977607757125    2.50414580368582
O         2.03284036178441    7.35900205571539    3.94513436598330
O        -0.57999387456648    5.40542305608407    0.84943745535420
N         4.43724869083912    8.42017096574539    3.63379241485903
O         3.89538701228938    3.39281480732752    1.81656736327798
N         2.31817447077757    9.49534116731660    2.48357770013642
C         3.17110000397815    6.99200000663255    1.46870103344648
C         2.49167802108155    5.78594128317629    1.24874668814699
C         0.40532365850604   10.05769796542638    3.95392184304706
H         0.48743758890502    9.16289277462649    4.56667795984839
H         0.99183087066708   10.85338522374407    4.40812320220922
H        -0.63960739762686   10.35918270137552    3.94090206675191
C         3.70692843284244    3.38391750166478    3.16497545162178
C         5.64208359062781    7.59496170834678    3.61884877081079
H         6.18268582624991    7.84016087019696    4.53774811341728
C         3.11587225591799   11.84061724894380    2.47764174968043
H         2.13996096270387   12.30804353776988    2.37574777536651
H         3.34447523931957   11.75065869195622    3.53499102189513
H         3.85347986422213   12.49303905840631    2.01556570271339
C         4.07270712397397    6.90510042492991   -0.77775768377006
H         4.69211960290163    7.34023192252999   -1.54861945604429
C         4.21968027770184    9.19588784863437    4.86335594383104
H         3.25949106390950    9.70097128520906    4.71019046190322
C         0.68284047717368    3.60755511673871    1.55578422789897
C         2.60752599675541    5.18171756714563   -0.00371353433704
H         2.08808286565057    4.25313054145397   -0.18585111447820
C         3.15219852717109   10.46884475778926    1.79613390485548
H         4.17387355093136   10.08652491920830    1.88480772082340
C         3.95018146265036    7.52920386419809    0.44841186858058
H         4.47280513392039    8.45388671952172    0.62543096282883
C         5.35398982843892    6.09808454743461    3.64557670037795
H         4.64176164347005    5.86879575740615    4.43425376198935
H         4.94019092555659    5.77271185762680    2.69489944393660
H         6.27219340093618    5.54364109625755    3.83340902088891
C         0.93820003478667    2.25121192406439    1.64933888118485
H         1.74169099282161    1.89674562614169    2.27662062899874
C         2.79567560060055   10.62258808812261    0.31184655333735
H         2.63447616813459    9.65330510617635   -0.15259777029376
H         1.89208359591528   11.21408227713436    0.18596840319891
H         3.60356038175029   11.13071596959200   -0.20970033977100
C         0.87840215195104    9.78005920794088    2.53069211996910
H         0.74051571039082   10.69459285232687    1.94339732198907
C         4.07971761853340    8.33743313603733    6.11970010376922
H         3.26770833407887    7.62729987110472    5.99055893116023
H         4.99435652096133    7.79188273606393    6.34251720648657
H         3.84650242847020    8.97614981265512    6.96814688696986
C         4.52215158351981    2.73210650622030    4.08041736362818
H         5.38185256097947    2.16900917968062    3.75129485776634
C        -0.89625083576381    1.80332286565423    0.16946360852853
H        -1.50602177479182    1.09936559256480   -0.37709530978974
C        -0.41011032296291    4.05834168397449    0.79575690578205
C         3.38425377693872    5.72595855569977   -1.00682050457655
H         3.45569957671037    5.22907038372211   -1.96361653977393
C         2.59225778130838    4.10344231876320    3.61802592815515
C         5.30444863479621   10.25919480901285    5.03966774670708
H         6.24753737010846    9.81788953851253    5.35398039306427
H         5.47024154959103   10.79590708708927    4.10915336866937
H         4.99658167866134   10.96990142951016    5.80264475525464
C         0.02681004712896    8.69164525272888    1.87592208948233
H         0.51071245859338    8.31850566573779    0.97239392220893
H        -0.14791525305508    7.84923610385103    2.57592204473606
H        -0.94284963972988    9.11189393302751    1.61060328913421
C         3.13756275190025    3.51190430947642    5.88966960073816
H         2.92129980586091    3.56139608498095    6.94566023499541
C        -1.19572854449918    3.15653439726410    0.09654339053646
H        -2.03720210863532    3.48515960136217   -0.49312624780741
C         2.31819692522101    4.15874962049030    4.97930547452483
H         1.44293914988969    4.72827076308382    5.32355180865975
C         6.57222140113975    7.94721874943195    2.45385954963339
H         6.22662038330938    7.50231816992816    1.52567958004892
H         6.63638808175674    9.02576248133001    2.33251809430041
H         7.57019206615611    7.56631700400037    2.66028773142983
C        -1.76201436129484    5.95018985523857    0.30281349299809
H        -1.76509361438200    5.86787542039398   -0.78959482285880
H        -2.64742485690001    5.45668002649987    0.71250654115493
H        -1.77022815255179    6.99888792650250    0.59211686666463
C         4.23324771212360    2.80098212409248    5.43466137271859
H         4.87716144554185    2.29009032190833    6.13533558877595
C         0.15564371024829    1.34959982325835    0.94398175286614
H         0.36202749664495    0.29193410262234    1.00842151285909
C         5.00430542665854    2.72046039398044    1.27672662139988
H         5.94616193401077    3.12462133369967    1.66209811268276
H         4.96060231406018    1.64487156846817    1.47668043539950
H         4.95437779170315    2.88859350697315    0.20184445914538
C        -1.48044729486192    4.78850456399069    3.93042321131027
H        -1.30339195901893    3.89025907272334    3.33015100434605
H        -1.64008406496429    4.49449555348219    4.97294282595781
H        -2.37841057476718    5.30175333917790    3.57114950884327

