65
CSD_code = UFIYEQ | q = 0 | S = 0 | Stoichiometry = C25H31ClO5P2Pd | MND = 4
Pd        8.75485210925454   13.24693784857376    2.65733308792544
P         9.36119942488705   15.32030872340983    2.07109262438349
Cl        8.62654962272537   11.05915012658666    3.26024650508608
P         8.53583771375712   13.16003076954501   -0.11685141495110
O         9.62945263486152   12.58122608654040    0.68535890430139
O         6.89217446250976   15.99470013595134    2.32954583982675
O        11.35384001155956   17.36688990042727    1.12548456132090
O         7.03659130645401   13.11262835997584    0.43122241193466
C        11.18673204285916   15.24426917292646    2.08591771467089
O         8.43569757503899   12.39310564506656   -1.52785311989889
C         8.92026583745490   16.75515615755750    3.07541377116457
C         8.91233233423413   15.88197971743922    0.39138909800555
C        11.77095056538575   14.09555876446381    2.61273235629431
H        11.13030173892013   13.29031504691122    2.99981278828805
C         9.72668661719419   17.55706627271121    3.86013610228361
H        10.79626758027512   17.40925880187161    3.86020544879554
C         8.28197923821862   13.79078365580056    4.55462316490279
H         9.15298561735107   14.27197017041110    5.01531382248075
H         7.45006744628042   14.50270112946408    4.56851667787985
H         8.00985040079769   12.91937310008861    5.15296256519264
C         8.78711549912912   17.22556513506472    0.05210315998688
H         8.98110335986205   17.97873547149134    0.80071732165734
C        12.00751645711942   16.27145176610514    1.59707907247527
C         8.13887411971425   16.62528610423697   -2.18063740410441
H         7.84648892045281   16.91310968366071   -3.17966700603558
C        13.14823336965778   13.95781707177815    2.65046528154534
H        13.59160259276353   13.06361453083954    3.06007035832167
C         8.59790529446040   14.91563107762115   -0.55971638703488
C        13.38831602292576   16.12519241310269    1.63320744253659
H        14.03509623465291   16.90301162095982    1.25767735600878
C         8.21872646373059   15.28697315758714   -1.84060096219308
H         7.97678946449926   14.51815173950083   -2.55769896144640
C        12.10339676334244   18.43553735575579    0.60355337289894
H        12.70294545133614   18.12382710810951   -0.25764354313884
H        11.37539571411331   19.17866685847921    0.28164817126918
H        12.75733894412298   18.87700186170061    1.36267670802264
C         9.14827627188560   18.54610621412345    4.64224403426739
H         9.77097262825012   19.18566690776239    5.24930546628015
C         7.52498625392237   16.90432307653959    3.11580308686069
C        13.94944607450132   14.97098307653678    2.15627227631556
H        15.02475893767718   14.87178709040867    2.17549647560419
C         5.48597184560224   16.00007966174241    2.25753271817658
H         5.11253629036387   16.96522959174502    1.89981966558469
H         5.23007278624438   15.22174905811466    1.54117879045887
H         5.03838801006359   15.76871826781184    3.22912390974031
C         7.77444344336986   18.70777129561066    4.65541372135155
H         7.33044348357014   19.47662616690691    5.27011945026336
C         6.94694282267734   17.88561495069813    3.90135976958079
H         5.87631055026494   18.01242771261275    3.94761202144226
C         8.40882250313092   17.59331342433178   -1.22590028167576
H         8.31675802017868   18.64004312534508   -1.47852636313679
C         9.36394128708315   11.35925615399418   -1.84740699583520
H         9.37736623133721   11.31313282183312   -2.94040686598626
H        10.35620810592827   11.63467469405301   -1.48074435008118
C         8.94568825825768   10.02837211504527   -1.24649432030455
H         7.92905985224638    9.78214634574729   -1.54393570452431
H         9.61740608702799    9.24535139444853   -1.58808201848080
H         8.99502445651363   10.08460715236459   -0.16144078656947
C         6.43401159613701   11.89428149857792    0.91302321488603
H         5.82246181430546   11.48233234767118    0.10334048682098
H         7.21391529251416   11.17355340295160    1.19048372846443
C         5.60423378670596   12.23066401674051    2.14014879896988
H         4.75294551959369   12.85460412872929    1.87742956987941
H         5.25502306493883   11.31230018726854    2.60359258873362
H         6.24922577377965   12.76410157851828    2.85780102227174

