38
CSD_code = UFOHAZ | q = -1 | S = 0 | Stoichiometry = C16H11N3O7Re(1-) | MND = 6
C        10.96657894591418    1.71279438821602    0.36632558769993
C         8.34785117477083    0.98168250439620    0.98508211834661
C        10.43205816301835   -0.04281831241031    2.48134955385013
C         8.37917326804848    3.05330676321488    4.61306367080481
C         7.24039857477815    2.70550899199796    5.31840288836172
H         6.69341436380391    3.22254280265901    6.07838952879073
C         9.17095888697729    4.30034085401808    4.81464594661726
H         9.78227746019860    4.17452716438904    5.71961030081881
H         8.45555530228740    5.10795721439482    5.01076408757819
C        10.09303323336793    4.71529207987833    3.66010401568944
H        10.42915101973264    5.73769485712936    3.87289685722020
C         9.26557936558579    4.78743161782195    2.34519448831908
C        11.37092543406746    3.82801578679507    3.69241815944251
C         5.72179618344221    0.70587380618897    5.15336766881104
H         5.46944802753956    0.83008481251693    6.20971782672533
H         5.98495849022002   -0.33786953792302    4.95726093041844
C         4.56977958377895    1.12426759055775    4.26883814403669
C         4.73055655768249    1.09893646834996    2.88868405917972
H         5.66833040538896    0.77081353670571    2.46453391022690
C         3.69800186324456    1.50524929755805    2.06366495390803
H         3.83644065334207    1.49110858796062    0.99368007668455
C         2.49808777491390    1.93111995586780    2.60960470665427
H         1.69200720017091    2.25005229540750    1.96507392386405
C         2.33373656130255    1.95330885734532    3.98365421364654
H         1.40068938731121    2.28772851900445    4.41417460076502
C         3.36950232549514    1.55639599137939    4.81250439047046
H         3.24099732958236    1.58160346175647    5.88620933775574
N         6.88702412305222    1.49214247113089    4.85040470706344
N         7.72771891974360    1.10996911110545    3.91349830620660
N         8.62075259814246    2.03151836270139    3.76029071015276
O        11.64112875046638    1.76424429791461   -0.56160403456401
O         7.41099555785478    0.56320349990430    0.45081558909704
O        10.76686604534498   -1.08870386844727    2.83903283848829
O         8.71776723140148    5.85894988125607    2.10010390732695
O         9.15261379399668    3.76037273183914    1.61695033241084
O        12.32628609426992    4.27442997662512    4.32177224633960
O        11.36311097785621    2.69214477673916    3.14094087713402
Re        9.84954837190579    1.72807840405476    1.95187857365348

