44
CSD_code = UFOLUX | q = 0 | S = 0 | Stoichiometry = C15H23AuCl2N2O | MND = 4
Au        3.89751038105301    3.86891781573095   12.62770870305279
Cl        4.86644515758253    5.55208261358460   11.54811261377388
Cl        3.33058256123537    5.27658794392379   14.29320575434327
N         4.32152603243197    2.48659256118631   11.25914732496735
N         3.09057391663322    2.25514905521288   13.57083887175303
C         3.94970853437445    1.23157934763022   11.55125089341331
O         4.12388493439350    0.24697990884959   10.85635723749357
C         2.80715827304204   -0.09140177156101   13.36223287962307
H         2.97513487979724   -0.96862040119859   12.75646141894691
C         3.90122908029787    3.38525908017472    8.99783868336593
H         3.56034215124045    4.33655995381040    9.41155770440825
H         4.42452283047729    3.59672964241575    8.06380376393354
C         2.16132581452128   -0.12651095724251   14.58608819134528
H         1.79563280846206   -1.05955162115228   14.98716437535276
C         2.70268030791801    2.48181395825562    8.72130242963537
H         2.16204256803795    2.29549969746747    9.65355538746427
H         3.05521676424603    1.51685165348913    8.35143873856377
C        -1.58371860006372    1.93051585669892    6.07279137707422
H        -1.21776748984467    0.98171633765395    5.67340654647457
H        -2.13039251933315    1.71130017196163    6.99330471665732
C         4.90431428297655    2.74993615006178    9.96163718165415
H         5.25124931335758    1.79260502230155    9.56177609081975
H         5.75957786437745    3.41534605133784   10.09650140569894
C        -0.39582018836362    2.83426750966481    6.39298924846300
H        -0.76188147450177    3.78616988931870    6.78543485843109
H         0.15219103116414    3.04773399682919    5.47214204030666
C         2.47262765447529    2.23799225598872   14.74668451674207
H         2.37431436944254    3.19377110102929   15.24387710215393
C        -2.53377912532901    2.56884808666283    5.06236424952950
H        -1.98425607706823    2.79720998683016    4.14622064386076
H        -2.90766115197031    3.51256737918391    5.46629142225218
C         1.75047260851026    3.10502383846289    7.70449256396833
H         1.39489799819373    4.06569307974649    8.08457700089933
H         2.29278533053812    3.29902595016384    6.77638033973356
C         0.55454967983152    2.20363963561591    7.40803967968598
H         0.01256445742715    2.00277969192810    8.33563148583564
H         0.91224984140242    1.24587031678072    7.02297812463895
C         3.26449554223028    1.12672548464149   12.88095563824310
C        -3.70981282313374    1.65780430145461    4.73277414293263
H        -4.37457974766126    2.13350142499741    4.01538221469220
H        -4.28004212046560    1.43079951661473    5.63126436397684
H        -3.35802995809327    0.72081892612779    4.30596096199796
C         1.99165433039256    1.05969101845313   15.28831159460633
H         1.49367997576469    1.07892853891141   16.24416551723533

