54
CSD_code = UFOLAC | q = 1 | S = 0 | Stoichiometry = C24H24ClN4Ru(1+) | MND = 9
Ru       12.31249086677882    2.47024308064361    5.84227322946669
Cl       13.53825381022153    1.73459711810662    7.68534386021141
C        12.93000272506537    2.74314516758696    3.62258887688107
C        11.51719207215632    2.66554152345342    3.66551139259300
C        10.94905646532806    1.51913118468862    4.26627472050788
C        11.75470622452776    0.46471733709227    4.74767781518010
C        13.16057378046027    0.54153663095430    4.68213452353963
C        13.73875903570222    1.71388773962013    4.13327287479193
C        14.02190297095064   -0.57778844369577    5.15961170781544
C        10.65657990383426    3.73635922507814    3.03827894967410
C         9.87706982581003    3.16215048552806    1.85131354807738
C         9.71053346881021    4.35241053009423    4.07329969348998
N        10.90734853684448    2.84010407667967    7.18193578754048
C        10.09553434815651    1.89262248347134    7.64328678240114
C         9.25330611219822    2.09383055632323    8.71911368634033
C         9.28126732454307    3.32199271629708    9.36898924711637
C        10.13006905840126    4.30687682142661    8.90243589238959
C        10.92211421143887    4.05210327010142    7.78378563257130
C        11.93696381350392    4.93225609400545    7.22598928257338
N        12.79083225450555    4.26918023389168    6.40779139034112
C        13.92304503544813    4.87218864465477    6.04337805938987
C        14.20418222531955    6.15445179905307    6.48888742711132
N        13.30476789313214    6.87022392603707    7.13441343581261
C        12.15318833958251    6.30802072561885    7.47242452318318
C        11.12574984739346    7.22109367224942    7.98707766180237
N         9.85705863756520    6.90255968035705    7.72652372429974
C         9.17311385666437    8.95248081823605    8.73636731445161
C        11.49334353308366    8.40574899109636    8.62301816583207
C         8.91452864464058    7.74963633414305    8.08852832071142
C        10.49139304732399    9.28142756412724    9.00997640604382
H        13.39358253778190    3.58068084695665    3.10936237410158
H         9.87135016680398    1.39425804851175    4.25847916429240
H        11.28957858755383   -0.45226360911143    5.09360380097856
H        14.81575090578877    1.76362464974870    4.01565385290216
H        14.90682186083868   -0.68099261317076    4.53550215220739
H        14.35597898720918   -0.36565301387442    6.17867657110014
H        13.47552513815282   -1.51748033544986    5.17413649367049
H        11.31515068687078    4.52851294678596    2.66458712412486
H         9.32317602843851    3.95590883388393    1.35825811289146
H        10.55482017776746    2.71613585538785    1.12719925125917
H         9.16929042122454    2.40371584383941    2.17585181775240
H        10.26986276211448    4.74301815871839    4.92559220269323
H         9.15897802449586    5.17441662588888    3.62568123469674
H         8.99101988972540    3.62101976302924    4.43404696234018
H        10.14362469189613    0.93089287369484    7.14728195901291
H         8.61123109022348    1.29721340820452    9.05721079710686
H         8.66581119006453    3.49824676964194   10.23639686286479
H        10.20159104309051    5.25493918076998    9.40486990455540
H        14.61456373126569    4.31607378770190    5.42511409383684
H        15.15042180295617    6.63215611775212    6.28412114318723
H         8.36426261598094    9.60916427711174    9.01305987771928
H        12.53502923257088    8.61552577394661    8.80026659296027
H         7.90475347841389    7.44845615426083    7.84473353327760
H        10.73669707938415   10.20589966884709    9.51001018833074

