65
CSD_code = UFOMOT | q = 0 | S = 0 | Stoichiometry = C26H34NPPtSi2 | MND = 5
Pt       -2.75547113117353    9.66856664135491    3.38341411004661
Si       -1.46442621049312    7.28017605784427    1.36287276012474
Si       -2.53003574816670    6.67398530506597    4.20576598561132
P        -4.45102289931994   11.27996073974412    3.58449110695317
N        -1.59128723174575    6.29055853195155    2.79221135016351
H        -1.21418840942333    5.36066454830925    2.73460890064540
C        -1.39077551442360    9.10054510721355    1.85906634379827
H        -0.40679978252473    9.48479182969316    2.13701927248083
C        -2.31258443393148   10.05055536021683    1.36674395173942
H        -3.06786833219018    9.72400116751833    0.65592517209439
H        -1.98111516439245   11.07574382566184    1.19378616564516
C        -1.92674153876709    8.34455207913570    4.84884188993969
H        -0.86020098145310    8.52117107643537    4.97347787355011
C        -2.81809215259664    9.23010926885312    5.46439400333125
H        -2.43486916725154   10.02929979335331    6.10059362896482
H        -3.80215501771587    8.88003087050831    5.76556305411037
C         0.14958917562001    6.77246367434604    0.48765414139596
H         1.01093051719946    6.89907230557194    1.13416694907617
H         0.31485129143474    7.36524750933377   -0.40503540488809
H         0.11243488231648    5.73100348756319    0.18726829445258
C        -2.93938644507833    6.95316218507180    0.19009562278480
H        -3.88232722813004    7.22515716608597    0.65332904112063
H        -2.99544377246566    5.90030884565935   -0.06969330480190
H        -2.84645011912488    7.51353530338050   -0.73511559183843
C        -2.28829885781559    5.25726824279236    5.45004592041133
H        -1.23900303337384    5.10648665169441    5.67577742957246
H        -2.68034822588665    4.32798174075172    5.05276322528212
H        -2.80183673857606    5.46235085212685    6.38204883878538
C        -4.37876631527404    6.87918946902962    3.74600799986723
H        -4.52864375421313    7.84853757847988    3.25750913345971
H        -5.02311365522150    6.84806112923667    4.61926565007196
H        -4.71237126071284    6.10612328561172    3.06086606493521
C        -6.00062678741613   11.32911088060180    2.62022258233466
C        -6.11331723562055   10.48468516257162    1.52254487581597
H        -5.29042411258861    9.82261749489431    1.28767414020136
C        -7.26202433956987   10.48555178563215    0.75191852655513
H        -7.34312672734614    9.82573982289362   -0.09956472939113
C        -8.30965725547588   11.33045365359905    1.07796173597886
H        -9.20864504747412   11.33388594204777    0.47918561933842
C        -8.20915942013120   12.16644789661650    2.17915942772069
H        -9.03031205412758   12.81974164026559    2.43730288682673
C        -7.06239601610586   12.16625944273054    2.95179542207020
H        -6.99194919367027   12.80768137747977    3.81982415257122
C        -3.63943860784288   12.86155540006768    3.18305320862737
C        -4.25513609143208   13.96005601769034    2.59889239391339
H        -5.30098026609626   13.91870651947872    2.33078676435640
C        -3.52134000520711   15.10728917152274    2.34747829205550
H        -4.00187326108935   15.96006367984637    1.88982261132111
C        -2.17771817732125   15.16636068009123    2.67740537980514
H        -1.61258222369757   16.06542797229700    2.47970366094542
C        -1.55507351354967   14.06779666915343    3.25037925474130
H        -0.50407456838870   14.10853635258643    3.49709018894418
C        -2.28201666113149   12.91920906642124    3.49490070947177
H        -1.80677160343307   12.03636436404841    3.92255442795038
C        -5.11288568214906   11.61891942631510    5.25079519311744
C        -6.07292582944946   10.73782281684850    5.74505481278663
H        -6.43388646575455    9.94106275755170    5.10689875693802
C        -6.56033090996840   10.88213501364375    7.02869252096816
H        -7.30838022414153   10.19826753205409    7.40308532474196
C        -6.08500551880763   11.90214157786143    7.83882881439462
H        -6.46324075398416   12.01489282471902    8.84415963981448
C        -5.12096329690878   12.77197524749557    7.35865554132633
H        -4.74610343650385   13.56465108971782    7.99013418262148
C        -4.63152635890047   12.63135957076736    6.07156656158859
H        -3.87659109989816   13.31156952155711    5.70280754077435

