40
CSD_code = UFONEI | q = 0 | S = 0 | Stoichiometry = C10H25ClNPPtSe | MND = 4
Pt        0.16297762712901   10.62425832677632   13.90222422761500
Se        0.35206437668671    8.71838233233832   15.35228731413392
Cl        0.11608409500646   12.48210207880848   12.42901723444531
P         0.21945515795768   12.25102584355343   15.46781346588608
N         0.16998134012541    9.25844188525527   12.27231068526381
C        -0.00916659989524    7.85207396999437   12.67208387996569
H         0.24007125324451    7.19602052498304   11.82184055036229
H        -1.06636720793509    7.70710562920491   12.91818391227727
C         0.80897134662863    7.47667158112262   13.88796060522876
H         1.88335903253176    7.52692350312620   13.70599724812792
H         0.56060916859321    6.46678021265390   14.21779530653513
C         1.48443081471784    9.44886137596220   11.65377088581282
H         1.60779141862827    8.78524504111398   10.78804683488827
H         2.27719899288222    9.23679121388734   12.37333222982395
H         1.58105216236759   10.48292872469708   11.32036980281790
C        -0.87127292941202    9.59629735097375   11.29914199000265
H        -0.82615366597975    8.92188219954525   10.43487547846622
H        -0.73763326586727   10.62187144684374   10.95652038739724
H        -1.85457284594081    9.50903207827403   11.76451472831332
C         0.35481971981618   11.81372728048719   17.25363744678481
H         1.21208838163943   11.14148030274678   17.34294143327451
H         0.56853680174988   12.73303005171451   17.80833733185008
C        -0.88021250975111   11.12227077136447   17.80991226475209
H        -0.69207536879688   10.77990611359458   18.82522661420982
H        -1.12270464300271   10.25378025618027   17.19709066040446
H        -1.73470538898470   11.79431614332364   17.82896646473619
C        -1.21586809344790   13.39744419921874   15.37647712620379
H        -1.34301531867517   13.90561368575935   16.33608948462297
H        -0.98808759533354   14.14294137216949   14.61109158979390
C        -2.46791478698237   12.62115328792598   14.97838489961463
H        -3.30386158200178   13.29531963180763   14.80329600187096
H        -2.74928001660090   11.90434047192416   15.74576995377038
H        -2.26767752265180   12.06979746490511   14.05601330768134
C         1.71153605985267   13.29810943331038   15.23587152063869
H         1.55325197426542   13.90039838994052   14.33886187157418
H         1.84167265708147   13.96578101772821   16.09164462198473
C         2.92077609634475   12.38921503730370   15.04031417828562
H         3.79803096158918   12.96128408974108   14.74597231231512
H         2.69501368717271   11.66467881543973   14.25043613352013
H         3.15039621524898   11.84021686430102   15.95087801474835

