42
CSD_code = UFONIP | q = 0 | S = 0 | Stoichiometry = C17H21Cl2NTi | MND = 8
Ti        2.22025383507513    2.11359256953533    6.86359830020993
Cl        3.13920787140706    0.37088815688269    5.96337902094725
Cl        0.30042596099698    1.26387025950560    7.42579992414051
N         1.83008743316002    3.11126291927326    5.41441269646262
C         3.07691243820033    4.12299184412500    7.43000770724101
C         2.20548400509925    3.74188984897514    8.47636467481973
H         1.32286256997900    4.29292329807933    8.78564076778274
C         2.69617435599607    2.57356722937323    9.09319370366023
H         2.28354639520584    2.10271214866148    9.97713526204002
C         3.93484445135972    2.23767192932226    8.47188593077124
C         4.87852804896863    1.22159543566427    8.71682199569184
H         4.71385498944864    0.50942711899087    9.51535399897996
C         6.00647122563598    1.16468412864241    7.93918157562909
H         6.74041382001170    0.39216685216965    8.11433235699423
C         6.23811369378600    2.09867053427722    6.91270800321147
H         7.14263669074246    2.01424118272664    6.32880752223192
C         5.34864352120936    3.10837559265500    6.64719412872827
H         5.55566415970408    3.83947286995131    5.87566098129514
C         4.17615747356023    3.20404795690298    7.42372742373219
C         2.77395574742976    5.14455963647237    6.37399470133569
H         3.60997215764305    5.83031912877339    6.21442596318540
H         1.89587895862666    5.72353966101331    6.67427852526713
C         2.46909789970902    4.36738695950345    5.07382024593505
H         1.83353483613587    4.97036469626300    4.41198570701477
H         3.41648421070235    4.16494447018198    4.54458070802639
C         1.04343493725333    2.47691574539550    4.37454770133391
H         0.79018042555427    1.46809349338909    4.74519699113930
C         1.81278659270368    2.29446469767471    3.05758089035900
H         2.04555077721219    3.26804550919689    2.62052850847977
H         2.74991446267841    1.77060147406745    3.27025679091380
C         0.95965001242052    1.49195275110540    2.07928388183396
H         1.49815420180540    1.36462614196765    1.13834173400435
H         0.77242324443029    0.50035031349698    2.49609954997760
C        -0.36984515212361    2.19857843121937    1.82560995400317
H        -0.97704820164199    1.60787562925761    1.13770737481926
H        -0.18059757193885    3.16678534085156    1.35600545185833
C        -1.12915209680207    2.41021639038030    3.13322921764782
H        -1.37237412475461    1.44135534151251    3.57398670421579
H        -2.06624672032514    2.93524043872130    2.93800852364532
C        -0.28393190648184    3.21054446875019    4.11939755525890
H        -0.80655500523013    3.32382414167270    5.07407636891537
H        -0.09105062455549    4.20406326341051    3.70815097625973

