81
CSD_code = UFONIN | q = 0 | S = 0 | Stoichiometry = C36H30Cl2MoO10P2 | MND = 6
Mo       10.79597564579470    5.64346904826793    5.49109819695318
P        10.80000426879099    8.58462346398284    7.03879481210097
P         9.33825252815801    7.53617126901434    3.27471343439098
Cl       12.85933381186692    5.89283217007349    4.52660317337294
Cl        8.75870443088790    6.35742277823071    6.42959362606311
O        10.07124807605839    4.72987973735538    4.33869126367972
O        11.26502870215120    4.66951804951245    6.72105872149114
O        11.47814191916151    7.36499920789795    6.54733630824928
O        10.47302893925900    7.35626060636963    4.20389399880235
O         9.95979788330668    8.45651858859626    8.35459488205479
O        11.83386139070828    9.71317397906811    7.47140360391443
O         9.88631218260238    9.25621676846101    5.94352913414033
O         8.90177683191272    6.35709157177767    2.34982822236597
O         8.06191360753623    7.99141691699500    4.06070241036768
O         9.62639140917718    8.68663184968402    2.20649700314434
C        10.08042771206281    7.31485366997522    9.16318061148940
C        11.31521839042546    6.75092621940933    9.42744706457938
H        12.20686211349534    7.19363696550435    9.00807545204591
C        11.38410223750417    5.61718351273582   10.22087614755129
H        12.34285718754848    5.16170502402557   10.41290115926952
C        10.23008267516780    5.06738603461675   10.75090943890864
H        10.28730195732389    4.17709817255496   11.35821953522112
C         9.00181887131158    5.65265433077213   10.49255683639505
H         8.09932108732869    5.22251968358481   10.89865564194045
C         8.91851269811037    6.77908990367029    9.69287504252661
H         7.97110179837904    7.23151337900862    9.45095552675912
C        12.88943637501365   10.19651926547693    6.70697956444759
C        13.23721397146588   11.52608762501115    6.91159097666540
H        12.66385880335480   12.11560193446699    7.60987604611413
C        14.31501559233701   12.06452399213257    6.23093514412432
H        14.58792036754953   13.09599865062249    6.39556293937923
C        15.03911984756314   11.28349759030044    5.34407032282246
H        15.88018513990108   11.70478030663162    4.81467131896543
C        14.68113237258956    9.96088331232222    5.14248786859320
H        15.23837617689459    9.34176824350824    4.45689061616738
C        13.60630097918954    9.40805395903161    5.82188515405799
H        13.34547762269100    8.37137551381003    5.66729949037811
C         8.85894664741942   10.14829329461935    6.25411637625292
C         9.07699171570152   11.50389764559575    6.07220722234858
H        10.04791290750702   11.84824951338883    5.75107876364819
C         8.03605401104885   12.39068571911746    6.29441692856870
H         8.19797896753457   13.44800965728823    6.14911686445197
C         6.79804529840428   11.92368491388775    6.70290877869095
H         5.98953207451992   12.61823635965085    6.87431560779233
C         6.59912175235446   10.56579614250527    6.89397807390308
H         5.63578405438315   10.19907979540135    7.21343442453950
C         7.62972298567604    9.66709189022536    6.67337216917849
H         7.49929839681357    8.60336691189555    6.79978992259443
C         9.79797773435175    5.43788422732197    1.79405271499950
C        11.14142428317800    5.72407804583628    1.63801823722405
H        11.53051758048312    6.68366484961137    1.94644958745677
C        11.98171532331800    4.75928078089527    1.10602089094929
H        13.03588884178622    4.97008816767809    1.01869188564339
C        11.47402863072893    3.53437684532508    0.71015660114428
H        12.13362023143720    2.78142013286693    0.30683116459428
C        10.12063394218639    3.27182145767240    0.84189971045552
H         9.72016747638226    2.31708613847264    0.53667189091789
C         9.27460005023948    4.22176972145837    1.38576106886265
H         8.22383743116221    4.02417328993839    1.52383270776629
C         6.76920296481349    8.06318196350185    3.55543327796700
C         6.16746446843621    9.30990086812277    3.47614871585465
H         6.72288988630981   10.18424374885202    3.77960716668643
C         4.86091282007756    9.40405084913761    3.02756034856392
H         4.38762453066396   10.37233070220035    2.96614799203395
C         4.16626284271401    8.26422165383496    2.65882099318021
H         3.14954641608482    8.34240288557861    2.30508109746406
C         4.77468998030839    7.02353417715516    2.75253695530819
H         4.23130429407470    6.13275260095629    2.47699836751988
C         6.07917933663707    6.91548253705694    3.20496658450431
H         6.56604921371840    5.95861390825677    3.30387953740521
C        10.06951034695992    9.94251276714643    2.59889707361225
C        11.31449275236626   10.11184257733181    3.18214451010815
H        11.93330026420785    9.25090641450993    3.38500484354235
C        11.74636668545523   11.39078571411294    3.49336034143413
H        12.71978442042714   11.52823895238125    3.93760024107973
C        10.94025004619887   12.48644694580306    3.23208637811433
H        11.28555551011902   13.47996126422710    3.47564504412921
C         9.69393593958195   12.30655335261585    2.65553240466290
H         9.06138582251779   13.15669718914712    2.45006378777682
C         9.25421341797936   11.03391151402510    2.33699435625041
H         8.29256209917850   10.87230861895185    1.87492770132095

