55
CSD_code = UFOPUA | q = 0 | S = 0 | Stoichiometry = C12H29B10MoNO2 | MND = 9
Mo        0.49219577828113    2.92771520508263    0.34415077998754
C         0.20112181778658    2.80549038425333   -1.94726384242933
H         1.00801000433953    2.24358379154104   -2.41929655037700
B         0.33303609416137    4.39555272334144   -1.45232880497067
B        -0.91471164557120    4.74550657215274   -0.23432356770194
H        -0.87140349451830    5.67991520165939    0.50542212755105
B        -1.79243911907347    3.24906176218447    0.01581812292859
H        -2.49943195068317    2.98569408279711    0.93251077780983
B        -1.01794779341833    2.02229304790749   -1.09426340463287
H        -0.90270580280501    0.85670225600201   -0.83944528081576
B        -0.43802061991993    3.99401211504654   -3.01800721686571
H         0.15880398741496    4.17287905660548   -4.02837362979750
B        -1.14023765123989    5.22249414916101   -1.97263779216921
H        -1.17247289770534    6.36570398205664   -2.26726191554131
B        -2.47242488603106    4.47585814698805   -1.09070015118954
H        -3.43479996045173    5.07733033575220   -0.77569062626429
B        -2.53413716802294    2.74738485750715   -1.55803669227009
H        -3.54366586622291    2.14024699336325   -1.55522829069328
B        -1.28660534478623    2.49011872685126   -2.77295494666026
H        -1.25849100084607    1.66010423573283   -3.61111460704879
B        -2.18902978331734    4.01431026784021   -2.76758655984913
H        -2.92973672619230    4.30049440499032   -3.63736014053065
C        -0.39383705960386    2.40380879349303    1.98289028636904
O        -0.85521426578967    2.10770980533664    3.00256253611685
C         0.86081571684867    4.14978814871502    1.78089702635466
O         1.10054116678946    4.83297775171595    2.69287502528497
C         2.16828582806536    1.74503345862463   -0.13603214612439
H         2.76795009083467    1.14918360459584   -0.81642798305324
C         2.22574978265438    1.98848491847663    1.13635231831894
C         3.12565119678480    1.71268994120782    2.29717422955184
C         2.33100849988717    1.55483449966909    3.59560545681375
H         3.00375472780088    1.33066138874142    4.42144913362320
H         1.61137982038317    0.74295412568225    3.50522280966187
H         1.79178934957526    2.46927813089954    3.83220945766499
C         4.10262246933109    2.89151759635588    2.43767923087829
H         4.80137682547020    2.69801858012642    3.24879580366681
H         3.56301953461064    3.80941539970186    2.66280852076375
H         4.67289048005742    3.03236242309810    1.51953167177699
C         3.91558580862442    0.42372908772486    2.02096210252082
H         4.56942900812397    0.19558708377596    2.86008389940415
H         4.52759522781055    0.53047946378857    1.12723339457871
H         3.23380225914901   -0.41183000585784    1.87607675689570
N         1.80672663591208    5.23715079160173   -1.67920902396228
C         2.35661247830293    5.73752503951701   -0.41167357247377
H         1.60410418915396    6.32557849554230    0.11108744731852
H         3.23049508025412    6.36655139363682   -0.60028780782643
H         2.65309216882308    4.90527221195487    0.22902992474234
C         1.61478309740682    6.40811803066311   -2.54841128023720
H         1.17954289704369    6.10736033203440   -3.49733001830904
H         2.57127229314145    6.90370298743928   -2.73210280357191
H         0.93704123564464    7.11003464742667   -2.07102320624508
C         2.81196681906963    4.37158975909018   -2.30629255682006
H         2.45152159091178    4.02261641312991   -3.27252091505866
H         3.01919090649821    3.51374304889222   -1.66324563450820
H         3.74544816927306    4.91942035438500   -2.46159787256210

