55
CSD_code = UFOQEL | q = 0 | S = 0 | Stoichiometry = C11H26B10IMoNO3S2 | MND = 9
Mo       12.00808716025454    1.77409977605534    7.88914463855479
C        12.81454068927631    3.98152179433387    7.74860658376073
H        12.13255905254928    4.69495992136081    8.21310423716394
B        12.58536547528050    3.37232560047337    6.21496213617110
B        13.47923327513244    1.85563031770984    6.11504941320079
H        13.30414045409518    1.00883792674531    5.30078471173160
B        14.30135480630538    1.60191812610513    7.73771171171737
H        14.67644397990268    0.55480124642404    8.15991269347862
B        13.77636707777657    2.96873117779072    8.68313963783762
B        13.74569548795602    4.71400703870748    6.49448799402335
H        13.46374360240649    5.82014900294657    6.20126828202291
B        14.19672681836060    3.38124602415184    5.44701913994208
H        14.31580795698222    3.48688779156639    4.27572076790914
B        15.21889158297344    2.28290081452932    6.38823021945394
H        16.06739809552094    1.64769754968153    5.87590065494999
B        15.42373209037993    2.99203602007708    8.00345131149109
H        16.38083288626335    2.83501866632207    8.67916245803402
B        14.47618262368782    4.46314763135742    8.05559652405858
H        14.62659717944516    5.39586561720573    8.76194493895592
B        15.38147172801789    4.04761118244275    6.59133936088997
H        16.31747553369700    4.66340807867530    6.23491341857892
C        11.89327715070498   -0.10442200125623    7.44910440607045
O        11.79009778750582   -1.23516038671479    7.20764410805780
C        11.91147790426052    0.51588552729436    9.36355721688798
O        11.88757499760534   -0.29666278500688   10.19225306026058
C        10.34522152069617    1.16653829773980    7.08824546617912
O         9.37468231511723    0.69707335629758    6.64784467874327
I        10.06876098950768    3.16515764621126    9.69628122615943
N        11.30211048635155    3.84505561145197    5.23529322899634
C        10.98363280253626    2.73725175065936    4.32002689233006
H        11.85232243697659    2.51718424349500    3.70375796131648
H        10.14370483929974    3.00580426055737    3.67637018381139
H        10.72355900172112    1.83808511288879    4.87249059312101
C        11.61831410940967    5.00312836150899    4.37946206513455
H        12.55210925868160    4.83307617527015    3.85053104467975
H        11.71881148815623    5.90343374332607    4.97837152194164
H        10.81762188583163    5.16008094411051    3.65406380881547
C        10.09789989502150    4.20446468707880    5.99915379719749
H        10.31592964129207    5.01473927858874    6.69342770655095
H         9.72356096491247    3.35178786234937    6.56205060614903
H         9.30646729844021    4.53782576995680    5.32458668607154
S        13.51868629095666    2.98975359699766   10.63171495643470
C        14.58122584744126    4.31293883243289   11.35282634922958
H        15.56653691961772    4.25571243310342   10.89274508464436
H        14.10289610168768    5.25405461243252   11.08440570933507
C        14.65309919998470    4.18287170042167   12.85975946291256
H        13.65761651591727    4.07840877907135   13.29421118993523
H        15.14061119385975    5.05605634758712   13.29271045507083
S        15.66441621513034    2.75884634958126   13.37916957385535
C        14.64699532619688    1.44996983649508   12.62255570494344
H        15.13081605931410    0.51292884716726   12.89647146928120
H        13.65186202500677    1.47964189774140   13.06920642093930
C        14.57897050989440    1.58312737796113   11.11590636955657
H        14.12620265575267    0.69242720514953   10.68296911095411
H        15.56638080894655    1.73403342338794   10.68048105050666

