90
CSD_code = UFOSEO | q = 0 | S = 0 | Stoichiometry = C33H53NO2Zr | MND = 9
Zr       -1.14816320246012    7.98908602536552    5.95993018113038
O        -3.99429254002704    7.04600622747388    9.20193307850823
O        -2.97476467512059    7.55590811025012    5.24361751120507
N        -2.72026637030606    8.20577645991828    7.76653507936724
C        -2.93206096383059    9.09815980821560    8.90212296846275
H        -1.98669235603849    9.54304174450822    9.22751788019298
C        -3.50985197145693    8.14118054498572    9.96380213736630
H        -2.73723407588791    7.77819306970673   10.65395408746169
H        -4.33372500820083    8.55441174560930   10.54394035201891
C        -3.46113497466759    7.16522013257436    7.96121762220746
C        -3.88842847434353    6.21858659746423    6.96747312093422
C        -4.62175783460015    5.09494113269073    7.36280518338813
H        -4.70742712326285    4.90548474659684    8.42179863834301
C        -5.21552091315586    4.26813634682791    6.43553457042287
C        -5.12341450189135    4.64484442693687    5.09056068686663
H        -5.63028748034124    4.03848476765711    4.36222613931671
C        -4.42748029217878    5.74970964334304    4.64633382736639
C        -3.71019814594372    6.54376538593510    5.59153681455664
C        -3.91009909955021   10.24185155472746    8.49795266895990
C        -5.27016083207840    9.68014552702528    8.07295220080956
H        -5.93708073704332   10.49932701044019    7.81314892521258
H        -5.74290063804621    9.10263399586349    8.86371245802699
H        -5.15969905449381    9.04283373800891    7.19686146070817
C        -3.31934543908689   11.01178748325722    7.31287993444350
H        -4.03392145794337   11.75498687544556    6.96493686039714
H        -3.08487892442283   10.32909327064885    6.48827271091096
H        -2.40999324837668   11.52705949059361    7.61070465547882
C        -4.08172469374172   11.20168890067461    9.67895062190340
H        -4.69474617801992   12.04772378358929    9.37792854321537
H        -3.11658754062614   11.58051118245665   10.00812460147419
H        -4.56695577444714   10.72099710941301   10.52498683131110
C        -5.95708131123002    3.02236996027045    6.89796280073415
C        -4.98065148193183    2.12425831976402    7.67128563579747
H        -4.14573151562865    1.84054205170843    7.03362044429005
H        -5.48391364186901    1.21855781638028    8.00362408316569
H        -4.58501349155335    2.63307564860244    8.54596908059013
C        -6.53347744843042    2.20741690175291    5.73711849396568
H        -5.74757867324748    1.88201070635049    5.05949786597740
H        -7.27066661330770    2.78219907431722    5.18144183562618
H        -7.02784839785537    1.32043093901623    6.12864341028926
C        -7.11616917741210    3.43762041316758    7.81468399703713
H        -6.75478549029376    3.97042548858273    8.68968382387288
H        -7.66380509802138    2.55944309937731    8.15089396419575
H        -7.80309237809463    4.08945379514449    7.27897982949997
C        -4.40806167113312    6.14522288579981    3.17320190636945
C        -4.89604763513968    7.59573646137335    3.04248128658479
H        -5.90034228309975    7.69225460640194    3.45119417506592
H        -4.91866197779137    7.88950156219673    1.99505021712865
H        -4.23237953645818    8.26989964051401    3.57838803555192
C        -5.31335341645294    5.26649163932615    2.30283779708250
H        -4.98453560569236    4.22955563949994    2.30319326123495
H        -5.27457783716090    5.62556253107487    1.27627171586355
H        -6.34748175136664    5.31455705473237    2.63642517650288
C        -2.97481455047962    6.03342352785246    2.63674767719717
H        -2.66097917504551    4.99013621999744    2.62124055580049
H        -2.29412932059585    6.61028450983602    3.26432670409642
H        -2.92553808912050    6.41807881694195    1.61967845822961
C        -0.44840800368083    5.94771343063801    7.43545440401402
C         0.61614594799877    6.88958692690791    7.40859128961666
C         1.11349309641271    6.95182595647853    6.08001795539295
C         0.33399395572676    6.06801713523148    5.28210323837241
C        -0.62401785782410    5.43874014563181    6.12393157155328
C        -1.03974798671155    5.38576420440268    8.70037947580266
H        -0.34793842166186    4.66222279336292    9.14261042971935
H        -1.97984816129417    4.87003863058045    8.51433399096812
H        -1.21169820993591    6.16375881541004    9.44549763106150
C         1.22167759405139    7.51604684996313    8.63692062078704
H         1.82990360877378    6.78394099697076    9.17578877019335
H         0.45010058461929    7.87223239765633    9.32238503272729
H         1.86203726638796    8.35723324917867    8.37970304069705
C         2.35625570323187    7.65067790155279    5.59525057590413
H         3.10729588463285    6.91309363691589    5.30215051981345
H         2.78999309834541    8.27117030875536    6.37659148806941
H         2.14944412124070    8.28029678320851    4.72726816163084
C         0.67768959002929    5.65800475268638    3.87469372052848
H         1.45095520228139    4.88396648961565    3.89074700854997
H         1.06549622131555    6.50009208254445    3.30212148829512
H        -0.18752389176669    5.24921242587899    3.35602783503416
C        -1.44167091531410    4.23609577963781    5.73542803973123
H        -0.79313885543096    3.35869245887439    5.65661076329240
H        -1.93353084269120    4.37315344944836    4.77330231787809
H        -2.20896809681729    4.01777620046018    6.47515856717691
C        -0.77665835446431    8.90679588109001    3.93095549398123
H        -1.61516739313990    9.57767406827565    3.68160284010725
H        -0.70430731175231    8.17889843172123    3.11203594704288
H         0.13413119709334    9.52022962155210    3.88636705778705
C        -0.23629090455856    9.90222595811936    6.72768072865383
H        -0.62219636188345   10.81439309113783    6.25123954684556
H         0.84157868640788    9.89421439891868    6.51276432963567
H        -0.32886809963106   10.04502859896493    7.81369153534346

