59
CSD_code = UFOSUE | q = 1 | S = 0 | Stoichiometry = C31H20N4O3Re(1+) | MND = 6
Re        3.75023789241296   11.12202893444416    3.94958306445350
O         1.46537599903952    9.25497630195872    4.88461249522762
O         3.24893565649077   13.29952899120431    6.08983592045283
O         1.76616671788426   12.26709817312805    1.86782958867647
N         4.30037517537056    9.57034708982012    2.43726113756049
N         6.28078435221097    4.71333435918920   -2.27228636102149
N         5.37455228914279   10.19126837117078    5.06671775700592
N         5.57280639021846   12.08045155964007    3.22250719725448
C         4.39411225953547    8.28038018466469    2.76867364841638
H         4.13828629703024    8.01690552464334    3.78800791450261
C         4.78389329363482    7.29750605050495    1.88326019895231
H         4.84814352898466    6.27403487713274    2.21678666765242
C         5.10172142780459    7.63993427329427    0.56805961528090
C         4.99953492493394    8.98958165132803    0.22793276321539
H         5.20632426020440    9.32134689268831   -0.77704579656167
C         4.59499107481170    9.90352833933531    1.17838649489908
H         4.49358593975500   10.94885454710903    0.91220486357278
C         5.51129041978398    6.62963162370485   -0.41181532179385
C         4.90877801326809    5.37228793310059   -0.43926612321471
H         4.11181877969481    5.12397779152287    0.24432119273918
C         5.32942709755695    4.45837676250802   -1.39347272321893
H         4.88428836630374    3.47492813384352   -1.45523759469967
C         6.85630038827472    5.90096438591200   -2.24806086631133
H         7.62956003720078    6.06313898660961   -2.98640133360252
C         6.51023334319578    6.89661356408523   -1.34759773142542
H         7.02274972977224    7.84647694040492   -1.35717146748834
C         5.26239398469814    9.37423239999390    6.14549234011729
C         4.12710122560626    9.44483837264168    6.98141202503828
H         3.36793693159437   10.18600542480123    6.77264126836318
C         4.00830665285420    8.61864268180863    8.06534016629618
H         3.14045115979718    8.69413438073319    8.70145536061023
C         5.00479106327998    7.67629892583688    8.36730548256903
H         4.88272522138333    7.02741697856555    9.22009218906397
C         6.12902743082391    7.59784283679172    7.59354020742979
H         6.91639931804689    6.89652862610499    7.82446213971693
C         6.29260370926329    8.44902101197379    6.48282519556221
C         7.44838115756237    8.43297380392741    5.68010759851214
H         8.23259894790757    7.72135509023251    5.88912054528647
C         7.57715476141536    9.33977152015320    4.66586789465212
H         8.47592147969941    9.35617174930174    4.07380887598983
C         6.52055837003014   10.23019221255525    4.38856747027778
C         6.64109195223689   11.30105334426511    3.38386077816065
C         7.84548574867401   11.53764710664979    2.69135919462515
H         8.68911220501128   10.88230177245208    2.82235452711523
C         7.93912017228027   12.60445406555868    1.84280477757929
H         8.84385160637500   12.78969452347493    1.28398177113815
C         6.85413188798250   13.49218133194524    1.72192684594358
C         6.90976501788447   14.64853178566596    0.91887258671563
H         7.81296408910186   14.84403537534250    0.36107519585673
C         5.84780494521517   15.50745548648630    0.86539975240766
H         5.89271250851616   16.39431418180031    0.25333625300187
C         4.69588951268537   15.24665459300016    1.62492601802894
H         3.87526846440094   15.94628616426206    1.59995134743484
C         4.60323162154498   14.12263023065564    2.39927324464192
H         3.72198880467615   13.94606375536664    3.00028487951516
C         5.66975735636159   13.19977981233568    2.45911487579380
C         2.29155701237425    9.97580503007587    4.56671301056188
C         3.40807593411236   12.49581517331763    5.29654384487981
C         2.48166609209624   11.87656800900841    2.66705713659369

