63
CSD_code = UFOTAL | q = 1 | S = 0 | Stoichiometry = C33H22N4O3Re(1+) | MND = 6
Re        4.99571756981566    7.50568544286944    7.68916640073300
O         6.89389382418010    9.94850457340571    7.58934098907385
O         3.92098141921504    8.06105238470852   10.53755882434352
O         7.43522179198114    5.83754081579630    8.60963351045829
N         5.59574001352836    7.07318558705292    5.58622269431446
N         8.41644404851669    4.37637531389637   -2.94257465165126
N         3.26441195848810    8.41020233984712    6.71531825643513
N         3.61092296496094    5.85823666522298    7.33245964128758
C         5.60591725139677    8.03021769362789    4.65282813033384
H         5.34190716839457    9.03055410093972    4.97486143603647
C         5.94165458633514    7.80016930376773    3.33853988413403
H         5.93348556700315    8.62099173717924    2.63842601644049
C         6.31267927903597    6.51511459789491    2.91720116992913
C         6.29205479260223    5.52099289334491    3.90506360033809
H         6.55496537451827    4.50165547813003    3.67606388019299
C         5.93824073614243    5.84098549931463    5.19582724186070
H         5.93820089905125    5.07133333284404    5.95865493453859
C         6.69314823683499    6.29575590924074    1.54330903618840
H         6.57248586222718    7.15605513031703    0.89986685878892
C         7.19363844877681    5.15294700511123    1.04327727144409
H         7.33299108436735    4.29893685320451    1.69371811590217
C         7.60034340233695    4.92758194585837   -0.32922436997022
C         7.51481674125206    5.89322931488267   -1.33808691500563
H         7.13308019031043    6.88163892090421   -1.13970464302162
C         7.93449373230596    5.56252136785026   -2.61540530389747
H         7.88367288585494    6.28347498303196   -3.42016729860275
C         8.50324916036662    3.45675514137908   -1.99830915328521
H         8.90423447922350    2.50170852373898   -2.30929826322723
C         8.11351217442611    3.67558100437624   -0.68766711232538
H         8.20593439483525    2.89046205842694    0.04779921996778
C         2.98903527762374    9.73458227746427    6.59243995012963
C         3.56025035281869   10.67157241941832    7.48050121610084
H         4.18631354988991   10.31588426361649    8.28712029725461
C         3.29539333225255   12.00737184833000    7.35002962111674
H         3.73285442273982   12.70825122144950    8.04358921039749
C         2.45596840359353   12.48064385635325    6.32863938651791
H         2.27227005721808   13.53953094871260    6.23802982324359
C         1.86320347435268   11.59908015383203    5.46845918936233
H         1.19528687221876   11.94133181110688    4.69258060838417
C         2.09978310891175   10.21533219842232    5.58780317611615
C         1.47902753836568    9.26815490647478    4.75257327640717
H         0.81535898057966    9.60202946336289    3.96946567064071
C         1.70002799627656    7.93651302023710    4.96354758432938
H         1.19388079043159    7.20759892425636    4.35461888765653
C         2.60028882780041    7.52935781413325    5.96868950181752
C         2.80233991714570    6.10901079832835    6.30394932725730
C         2.12784606997169    5.07676943392044    5.62126087173428
H         1.51042195285791    5.29773455678624    4.76782347642661
C         2.27556034732333    3.78307501834546    6.03519115131967
H         1.79194339672464    2.97459008644532    5.50827753224122
C         3.04160186481904    3.50484856376358    7.18241475370233
C         3.17333273552769    2.20425214677262    7.70779874017112
H         2.68043482170655    1.39104393451523    7.19694607523720
C         3.89510219895666    1.98694038380568    8.84816115410166
H         3.99190395368675    0.99146581688716    9.25178569326038
C         4.50030775705571    3.06611998580154    9.51222148803640
H         5.04060303203061    2.88832650964025   10.42876075833045
C         4.40812189209853    4.33790305522897    9.01661063351660
H         4.85441025657448    5.16576133731106    9.55007489197611
C         3.69347861700946    4.59599819534236    7.82684280770469
C         6.18578532009926    9.05674175096900    7.67319605172750
C         4.33978163093401    7.86103758266059    9.49539781777737
C         6.52784121211513    6.46459979814991    8.31369997424886

