81
CSD_code = UFOXAR | q = 0 | S = 0 | Stoichiometry = C40H30F4IrN3O3 | MND = 6
Ir        5.94656970888278    9.73550799175633    4.39377008250586
C         7.83929732572379    8.17747875964205    2.63969686774385
C         8.54016522958459    8.88720859643920    1.65941022916841
F         7.84276596900604    9.55275956154569    0.71302100318677
C         9.92427088047328    8.97195680449532    1.63038106786433
F        10.48455050575627    9.69040475395303    0.62867343260826
C        10.70969503972461    8.34318481256770    2.59583511622766
O        12.05445939399651    8.36380690517924    2.70753312186267
C        12.80855033937802    9.36569239934974    2.04521452803333
H        12.27260718213997   10.31794556014201    2.03606514445695
H        13.02450753754687    9.05175383242795    1.01708771406202
C        14.10493819805746    9.54743704262079    2.82676791985582
H        14.43342903297428    8.56892272450444    3.20426301152019
H        14.88693921651558    9.95373002507711    2.16664098604900
O        13.86443242237160   10.43229427491343    3.89521095113090
C        14.94423030106510   10.52740924642793    4.78835417744313
H        15.16571406231116    9.55686378997501    5.24818965367256
H        14.64923135734850   11.23597155384268    5.55985322813311
H        15.84727396797160   10.89307207725616    4.28343795093216
C        10.01874147461353    7.57629563883176    3.54561250187324
F        10.73340193378341    6.90954126928078    4.46619745584159
C         8.64209391007311    7.48849145670721    3.56090073917217
F         8.04695242646001    6.72240062201567    4.49266155842319
N         6.46942523339184    8.26462827758158    2.78181680567244
C         5.64170066626263    7.74755677950093    1.89713858468985
C         6.19719569388018    6.81723755846462    0.84623784226734
H         6.59728856234088    7.40123125208512    0.01719616155415
H         5.42081567664965    6.16457047973612    0.45659337956978
H         7.00502924016532    6.20981065258749    1.25396903954471
C         4.26768303038360    7.96976853162896    1.87761517355144
H         3.70613569076728    7.39968973798240    1.15216159757015
C         3.52514641085476    8.88375650533575    2.63508266314527
O         3.94688160679248    9.67759340295274    3.50593409380814
C         2.03679141397324    8.93005787964656    2.33264415413225
H         1.55593994468019    9.66114004897698    2.97774046581899
H         1.59105557625491    7.95206747940278    2.50170648428761
H         1.87308910755012    9.20453494430875    1.29235173023964
N         5.22037853945410    8.35704499855907    5.68218143656951
C         5.12170887611407    7.05026823297637    5.50638653074051
H         5.54341232099925    6.64112418933783    4.60086952787719
C         4.51148789012712    6.20671485142718    6.43393462257469
H         4.46745305385280    5.14803198970423    6.23191982670537
C         3.97984096450263    6.72935806857150    7.59152191972825
H         3.50749779655827    6.09441081321226    8.32690700097175
C         4.05521581037574    8.11340586477119    7.80214773622078
C         3.53506364948956    8.78518363663238    8.94703015857335
H         3.05768885278844    8.18858081766396    9.71121367862096
C         3.63187041494642   10.13218629134587    9.07733393417022
H         3.23156591231207   10.62378591208961    9.95309877431042
C         4.24997585488630   10.93908497859640    8.07764371899239
C         4.36253825406971   12.33389163947261    8.15407999606269
H         3.97049878480247   12.85591470575705    9.01519537979206
C         4.96926535423975   13.02422383995238    7.13101745975195
H         5.05417630626537   14.10052004158442    7.19356568395035
C         5.48113845478185   12.37049699205360    6.00454817187143
H         5.94753985106859   12.96697880202110    5.23274383208908
C         5.39715044333745   10.99778441886219    5.87613767679449
C         4.77671178724133   10.30110308754056    6.93678706001188
C         4.68401807537128    8.88929780069108    6.80798967181484
N         6.66439138430003   11.14112083321093    3.14305916349443
C         6.02070481643031   11.75030954861525    2.16156019987274
H         4.96316325942446   11.54466789173825    2.07365586895802
C         6.65450744955728   12.61425958243046    1.27032406773030
H         6.07847720443669   13.07542586799327    0.48361072727560
C         8.00436042783160   12.85992529686724    1.39392117919903
H         8.51820004657300   13.51428962838215    0.70537388317351
C         8.71260263201443   12.23835074866880    2.43164539833776
C        10.10928848090083   12.39641315602657    2.67206098512725
H        10.66498533169757   13.04692579162548    2.01171262820048
C        10.72701396020260   11.74993544295882    3.69374324570089
H        11.78728000071512   11.87270577117048    3.86449755626135
C        10.01226966277111   10.88091820057372    4.56990931644624
C        10.60575404235458   10.17490650849462    5.62477267672488
H        11.66828654075648   10.26726521187863    5.79204048004709
C         9.82788411507041    9.36670538094389    6.42055639770193
H        10.28575159432117    8.82379288231031    7.23525183419629
C         8.45462824122901    9.21257246646931    6.19600328430342
H         7.89693287529238    8.55689037643658    6.84999445071496
C         7.82149699807353    9.85804634570037    5.15052089474755
C         8.63060589976297   10.70679226917991    4.35942885846376
C         7.98982251897294   11.38411559639786    3.28733648753266

