63
CSD_code = UFOYOE | q = 0 | S = 0 | Stoichiometry = C29H31ClIrN | MND = 8
Ir        5.67056486196986    4.25336990113714    9.22466994886529
Cl        4.83813084163454    2.88243216951889   10.94893735349869
N         6.91784014053995    2.51417060657485    8.84040666041382
C         7.16329705192032    5.97043272336915    9.75349347929373
C         6.01974343177938    6.14410499337661   10.52722129613275
C         4.87617951998960    6.23423433903760    9.63200317967997
C         5.37751055378786    6.25857748440721    8.28749038242591
C         6.77122541892641    5.98518520320531    8.35522583315166
C         8.57563914908701    5.89302313311411   10.24111939142956
C         5.92368133633958    6.26313470599234   12.01201187424881
C         3.51237880318518    6.66569206399476   10.07621128786172
C         4.59883540957170    6.60838468928447    7.05917722886677
C         7.73361374534198    6.05626353303736    7.21301314151104
C         4.50407608425903    3.14015407993228    7.99564743083586
C         3.14853631196488    3.35914520441463    7.78234796595349
C         2.41952068345252    2.56937095829643    6.90846147155378
C         3.03388968271111    1.53040046071432    6.23196334054244
C         4.37750201630519    1.28000315408201    6.44136915430817
C         5.10566763788436    2.07480676242592    7.31506766697974
C         6.58564732575427    1.82650357583349    7.56103570980674
C         7.45427191470982    2.45574855062551    6.48402891246764
C         6.91210114017611    3.09958458478744    5.38136784303523
C         7.73565043625915    3.68081018423150    4.43118211477424
C         9.11098151890399    3.63088868173042    4.57133078656447
C         9.66213831073730    2.98891844897917    5.66773385917406
C         8.84032021122994    2.40617479612068    6.61465890026319
C         6.81068719370746    0.32652640607881    7.69843236294672
C         7.53127447622533   -0.41419265211010    6.77188788859690
C         7.68027332590892   -1.78221656105723    6.93117866396328
C         7.10436673165770   -2.42650867589871    8.01087188551599
C         6.35912712354953   -1.69811949704503    8.92368981228421
C         6.20693737934632   -0.33361199350483    8.76611506728333
H         8.63164450246840    5.39510658658729   11.20751518159503
H         8.99096783760914    6.89689727760840   10.35185631948897
H         9.20426245696481    5.35018039899412    9.53711820283853
H         5.46965813660902    7.21734644593153   12.28214418694777
H         6.90554704238097    6.20115595877124   12.47447095634850
H         5.30077735667882    5.46719690272666   12.41998366999888
H         2.78087800103858    6.52965993104126    9.28351808892843
H         3.52762352826805    7.72285604968442   10.34982740244842
H         3.19281619591687    6.09490616946078   10.94572194689784
H         5.05743715983243    6.17978032684577    6.17155159130985
H         4.56673205415883    7.69307770788573    6.94121755362483
H         3.57774960577612    6.24085552718877    7.12312069931525
H         8.57114304732033    5.37433575913628    7.34989218643457
H         8.13496037055930    7.06837154556011    7.13052753329876
H         7.24751911751538    5.80332783371093    6.27442871196164
H         2.64331510499426    4.14862865081742    8.31985796521958
H         1.36637950546273    2.76217700023908    6.76138691154606
H         2.46842207993234    0.91097873732251    5.55159925220193
H         4.86710031438479    0.46469239879939    5.92674534003516
H         5.84069136509274    3.14853850146409    5.26766702220313
H         7.29799892710541    4.17716963405147    3.57736972749603
H         9.75172871979806    4.08586202875365    3.83090011390472
H        10.73510500055685    2.93841391785087    5.78376302954945
H         9.28872570886836    1.88563611243434    7.45142251972874
H         7.97478357707715    0.07133773638206    5.91527932511017
H         8.24668455958643   -2.34429601707613    6.20310867908555
H         7.22365215467513   -3.49261340322208    8.13386439724577
H         5.88726436652233   -2.19482842306525    9.75803922133081
H         5.58944396102290    0.21514841281891    9.46404349631892
H         7.92090425602381    2.68434357841335    8.88928676479550
H         6.67077421697275    1.89746469819844    9.62232010856785

