63
CSD_code = UFOZAS | q = 0 | S = 0 | Stoichiometry = C34H28Zr | MND = 14
Zr       10.74312940172000   36.85364912997248   -1.36694612150164
C        12.83924833831279   37.29138071198808   -0.71031223260745
C        13.56031848128584   38.14539183771874   -1.46701567052137
C        12.82281579311937   38.91315720195417   -2.55399850837175
C        11.42378599918788   39.18803956806726   -2.03132628575584
C        10.29740214746658   38.79125848938711   -2.67828375208232
C         9.29298429573177   38.03828534523069   -2.88135305904020
C        13.42337490469689   36.74847407682933    0.52376313541795
C        13.88763263944976   37.64637725235885    1.49572123430546
C        14.38780085907869   37.20359162171904    2.70295339313340
C        14.44575894951211   35.84740660878938    2.98057878850087
C        13.99231544418369   34.94316927328948    2.03470880408858
C        13.47956099894241   35.38320442394917    0.82846247538712
C        15.00500933481238   38.39721274719914   -1.29154845477429
C        15.52786564825097   39.68873097322537   -1.25766746240755
C        16.88131870414820   39.89976197130855   -1.07163686883912
C        17.74148721677700   38.82566041635090   -0.92122869842935
C        17.23589836760496   37.53668451943728   -0.95380322668385
C        15.88335696613425   37.32516882841350   -1.13637120574293
C         8.10729601687267   38.06584058397767   -3.70741896601645
C         7.20077378651813   37.00251444593013   -3.69185997522671
C         6.05585168339818   37.04267455480596   -4.46464593985955
C         5.78990591669327   38.14357547371326   -5.26234317925863
C         6.67745755086329   39.20813991214725   -5.28224119333309
C         7.82442710015032   39.17282054407526   -4.51452988703633
C        11.69105618049256   35.72511986081935   -3.52151217713922
C        10.30342696657465   35.50683867932666   -3.56469565738197
C         9.94867983290104   34.71683165048303   -2.45140177940534
C        11.12849514661232   34.42337019687420   -1.72934958524735
C        12.20762463939800   35.04999936269770   -2.39539722281849
C         9.22330964453893   38.14480926746548    0.20998345039190
C        10.32658265806572   37.69352557172855    0.96021078913763
C        10.26624863105648   36.27993672230006    1.01815404448561
C         9.12122624196500   35.86678072905752    0.30516295512156
C         8.48277572419466   37.01714466600139   -0.20423821013902
H        13.35156943532272   39.84359533867889   -2.78701641019856
H        12.77436020607436   38.32474546630797   -3.48238908190520
H        11.35736644447211   39.99522814196163   -1.29877287847109
H        13.85057897344023   38.70666341944423    1.28380850115618
H        14.74079958400523   37.91893736132253    3.43216787736748
H        14.84161687382710   35.49860360720771    3.92270555076002
H        14.03817770079056   33.88243720774842    2.24009654107272
H        13.14218439580007   34.65310777639371    0.10445739092234
H        14.86853093865576   40.54056677582287   -1.34975846086058
H        17.26710579079085   40.90902786065512   -1.04039276612680
H        18.79901382904311   38.99235431148225   -0.77783171339619
H        17.90049574989438   36.69261149951176   -0.83773719013155
H        15.49486438780162   36.31748336552629   -1.16630217590308
H         7.40091841140722   36.14025848195429   -3.06779320456565
H         5.36449270515545   36.21225499821420   -4.44475490876871
H         4.89421581781756   38.17309632503021   -5.86494134173668
H         6.47263277062791   40.06932015808086   -5.90210099671119
H         8.52027950272783   39.99990608148413   -4.52792831941115
H        12.27981009570532   36.19200905518915   -4.30037463023309
H         9.65425932782532   35.77361280395487   -4.38755230906871
H         8.97871929936460   34.26334992096580   -2.28337987797284
H        11.20240771706857   33.71474030604956   -0.91124678255279
H        13.26098006479914   34.90431350356332   -2.19450160516869
H         8.93000873458372   39.17759990920543    0.06597949132784
H        11.02006396000924   38.31708800914274    1.51079608740634
H        10.89423999240222   35.64824453046910    1.63473803214948
H         8.72261974481995   34.85929734178580    0.28568206206800
H         7.51298533505742   37.04661922424842   -0.68433063140636

