69
CSD_code = UFOZIZ | q = 0 | S = 0 | Stoichiometry = C31H34IrNO2 | MND = 8
Ir        1.72591490240147    0.82380668487259    3.03717438180076
O         1.04292155458123   -1.21733391103459    1.10668488824870
O         2.81456925699406   -0.90149649579489    2.38787973558985
N         1.76730178549679    1.49735776402385    0.99586970094535
C         1.06312247527713    0.30234491956436    5.06182486332697
C         0.94437841814912    1.72143024723695    4.91072620059717
C         0.02671541846525    1.95639124324549    3.83993833870866
C        -0.57244776297239    0.68348287507591    3.47955357760329
C         0.05276761795199   -0.31321447055104    4.21730670479882
C         1.77810256567329   -0.40904263292867    6.16982955183992
C         1.57018918738570    2.76790635490362    5.77814009093570
C        -0.50828839354223    3.29887140071538    3.44487201019425
C        -1.66904647718026    0.45796319685430    2.49059368474111
C        -0.28379581065132   -1.76607927027412    4.17734535820601
C         3.51124672444684    1.77119296389831    2.95230715941893
C         4.48481555010853    1.70589235276209    3.94158892502236
C         5.68711379785928    2.38235112048363    3.81778000581843
C         5.94670744311140    3.13823443749097    2.68764063285417
C         5.00155962436225    3.20579545975664    1.68083710545331
C         3.79503395021691    2.53156222164525    1.81165311283905
C         2.74074328855717    2.58963436783966    0.71636366499550
C         1.95598743469391    3.89068221699084    0.73923297630004
C         2.22281363511393    4.90296009379731    1.64912704532744
C         1.45320666288510    6.05495533205743    1.66356885854873
C         0.40668506228217    6.20965913720100    0.77230052442093
C         0.13339519095816    5.20495100540704   -0.14105292906439
C         0.90080290282279    4.05515338098103   -0.15570419536986
C         3.43436528026775    2.33463402254067   -0.61425016458642
C         3.54786497785491    3.29571697058582   -1.60826871819348
C         4.21333948859851    3.00646694076587   -2.78860906080378
C         4.77976713730722    1.76018370280234   -2.98404858417943
C         4.69607358167246    0.80562514145060   -1.98319603456243
C         4.03465285864679    1.09216441238070   -0.80445954162454
C         2.11066039573194   -1.59846751142568    1.59076996336150
C         2.68028260121715   -2.96619719614811    1.24041738230976
H         0.82907458976269    1.78207972612529    0.72091503710801
H         1.98319090857803    0.66911754034105    0.43817463773348
H         1.06880443611525   -0.69652377424752    6.94842884453280
H         2.53593931921325    0.22982708926637    6.61560615620422
H         2.26364398043389   -1.31096794223791    5.80209720314946
H         0.93702880550319    2.94746660468659    6.64900268004386
H         1.68327105642814    3.70410886650154    5.23771054331865
H         2.55165498309006    2.45753603334284    6.12612627414274
H        -1.32491961423932    3.58386397149010    4.11099812296454
H        -0.89136828853077    3.29438208893893    2.42626536796292
H         0.26422558787543    4.06165121597391    3.50706133926454
H        -2.54503642881048    0.03771055330693    2.98652126193056
H        -1.96365797889631    1.38514085850895    2.00418240055716
H        -1.34279771394430   -0.25125190054353    1.72903556750738
H        -1.18351516880589   -1.96101594281586    4.76501001730368
H         0.52799564812826   -2.36549884781192    4.58246357750150
H        -0.47277423021915   -2.08156742757394    3.15245067254683
H         4.30873064182926    1.10316462815341    4.81988905223543
H         6.42653730131092    2.31508421926055    4.60327198714047
H         6.88359156053848    3.66605914616632    2.58631841402556
H         5.19652618401437    3.78384201680532    0.78781416661454
H         3.03215591898872    4.78681781562608    2.35252056989192
H         1.67222626075086    6.83394450117923    2.37906247966849
H        -0.19309804908291    7.10738669354568    0.78624458195941
H        -0.67860181134947    5.31772236309961   -0.84455743689046
H         0.68670146145862    3.28558291857143   -0.88587016748771
H         3.12183578462653    4.27767486610629   -1.46535191594824
H         4.28950902858432    3.76270576390475   -3.55610845680180
H         5.29524115010461    1.53657904297213   -3.90617020710444
H         5.15437101903238   -0.16261899603128   -2.11865721071083
H         4.00615901299538    0.35696308997635   -0.01194276516302
H         2.17073991522558   -3.71644990316146    1.84173542728030
H         3.74306793040610   -2.99295126618997    1.46008468231768
H         2.49662447214191   -3.18240409240417    0.19132987937491

