57
CSD_code = UFOZOF | q = 0 | S = 0 | Stoichiometry = C22H32IrNO | MND = 8
Ir        7.87044548183800    2.41513405935215   21.92291678288844
O         4.98297119005280    1.24336809081893   20.11620878011417
N         6.29271367309836    3.51953992272587   20.92752868493569
C         9.55674625877149    3.01427111284307   23.33527316911713
C         9.53548230757688    3.96171834014087   22.28779090784861
C         9.86696576870625    3.28212667853590   21.05598034281326
C        10.05213588132536    1.92705859732590   21.33826222433611
C         9.76853499196698    1.71982129337739   22.74467045499454
C         9.48901998872572    3.29313979516486   24.80356752292445
C         9.51392749692961    5.45071185892355   22.44009086694435
C        10.12868611590734    3.96438772006438   19.75017717799069
C        10.57194716314070    0.87986898843211   20.40643664820866
C        10.13676091224154    0.48136943255238   23.50596845083901
C         6.35351602103252    2.30487717699052   23.25919626244366
C         6.34975723336945    1.48623111576469   24.38488880864731
C         5.31615393424593    1.52113823890766   25.30686671360008
C         4.24929729593025    2.37898667583346   25.11405511434120
C         4.22328273771972    3.19559475270517   23.99733940374778
C         5.25550232757861    3.15965473181254   23.07329834434494
C         5.28368358352799    4.07768171269821   21.86502948940645
C         5.74146863950786    5.46736883433560   22.31260963330048
C         3.93917626238618    4.15691783779220   21.14050212609354
C         7.08030136124808    0.62502426684605   21.01450142034586
C         5.62685603411040    0.54237305713953   20.89883258256505
C         4.92061691698466   -0.44288117688063   21.79753438134590
H         6.61277324565761    4.25878424716055   20.30385302432283
H         5.79481860617282    2.82201011241834   20.34416074979977
H         9.04392755888366    4.26533537137152   25.00075068821945
H        10.49478622097615    3.28379796952379   25.22834121349066
H         8.89445763075056    2.54189247892667   25.31873218115481
H         8.99145804971780    5.93277332746089   21.61463602579559
H        10.53667448073424    5.83468754702197   22.45223486530671
H         9.03487114824223    5.74771755731158   23.37085733096898
H         9.91974522447582    3.30329205684886   18.91048289493746
H        11.17600293930248    4.26784079322874   19.68550912784088
H         9.51794200464460    4.85957167151839   19.64135998877319
H        10.13774792037297   -0.09307796554567   20.62620208726337
H        11.65572989306568    0.79616234256864   20.51189325964049
H        10.35361271964030    1.12796563761319   19.36950423257708
H         9.63476493916079    0.45326551957130   24.47008757175284
H        11.21412728137521    0.46011258504361   23.68438674882854
H         9.86977276871925   -0.41607331080385   22.95189472752683
H         7.16774768890605    0.79744912012332   24.54529530402186
H         5.34356506800585    0.87616219519235   26.17422772356439
H         3.43954472348702    2.41271668337518   25.82815718029062
H         3.38857666409966    3.86616084287155   23.85341812674517
H         6.71717699673244    5.39315931122088   22.78399597334052
H         5.04274359693611    5.87546971717321   23.03721116661793
H         5.80019976610635    6.15012927297526   21.46572866453196
H         4.02877111804894    4.77780352362574   20.25031365363166
H         3.17332911836514    4.58911942822565   21.77678869790424
H         3.62666576554880    3.15916433108679   20.84264066791265
H         7.51869778998610    0.71792774326723   20.01722941255643
H         7.48307030727918   -0.24798712545432   21.52449307871240
H         5.17896618742221   -0.22771642450622   22.83089762808636
H         5.24497448867711   -1.45428614886720   21.56277132170171
H         3.84460851063244   -0.36871352581262   21.66471838798826

