61
CSD_code = UFOZAR | q = 0 | S = 0 | Stoichiometry = C29H30IrN | MND = 7
Ir        4.73508957689410    3.16034955396488    4.30633593981374
N         4.94837923083578    1.29156191375123    4.34983468804019
C         2.81496506501044    4.22897771562380    4.72164283681252
C         3.34883828523847    3.86807106298419    5.98514371432766
C         4.62138604656359    4.48798189666407    6.10382794828256
C         4.85643973771348    5.28770756255261    4.92654712084637
C         3.74322997488099    5.12494919707438    4.06833555559738
C         1.44065259061382    3.91890656436607    4.22321698115414
C         2.64933658619018    3.08301256228342    7.04904785641120
C         5.48612364680814    4.49384607441977    7.32161292944514
C         5.96402133364374    6.28712833742027    4.79112918430157
C         3.42334968979574    5.92499963649177    2.84229950363089
C         6.00959542530123    2.84612415108807    2.73325342093513
C         6.54822892496385    3.80774564994106    1.87567352702550
C         7.40428002715576    3.46874925476199    0.84141125586630
C         7.75180269667391    2.14638208399413    0.62323615052058
C         7.23777595615072    1.16236956220722    1.44797270503250
C         6.39019665107048    1.51208826105854    2.48564559515655
C         5.76012892679104    0.50560988200083    3.42220644306313
C         4.89694517275555   -0.41072824836275    2.56487524160421
C         5.38653706678032   -1.61181329341310    2.06755394373088
C         4.60148337643080   -2.39913606626988    1.24342419586383
C         3.32310475839150   -1.99453634071367    0.90084374063385
C         2.83655429667391   -0.78941885507569    1.37866879386263
C         3.62015229417154   -0.00170950103805    2.20115224877508
C         6.75578323398634   -0.26722396282135    4.27244537523450
C         8.05987463488572    0.17738226629663    4.44045013410752
C         8.92807160127298   -0.50115050549114    5.27835125110244
C         8.50230594219276   -1.62411982396152    5.96629394885423
C         7.19689776126159   -2.06181197055431    5.81924804654305
C         6.32845917875381   -1.38451011736681    4.98298955220273
H         4.49855743765783    0.66872972229876    5.02260372609422
H         1.41966126696701    3.87115540751526    3.13636949856525
H         0.74955027330095    4.70344154236091    4.53901689383813
H         1.07875555013750    2.97203839279498    4.61889040080899
H         1.94630201575414    2.37472240267708    6.61495647855065
H         2.09115199386991    3.75073877017745    7.70881617714955
H         3.36043767142661    2.52705331764871    7.65742192553723
H         5.34692177557734    3.59014453367719    7.91119989220136
H         5.23132844754899    5.35095250924274    7.94901588633577
H         6.53795427881155    4.57381989652184    7.05478146415052
H         6.91446384608054    5.86742690876121    5.11461425657421
H         5.75191202069358    7.16336840689017    5.40721525665973
H         6.07287847155345    6.61488074129144    3.76091397723024
H         4.32024588255799    6.36970053987449    2.41982523071543
H         2.72928455940540    6.72954993926925    3.09405886904940
H         2.96119407723523    5.30544920779735    2.07620051884954
H         6.29708366219616    4.84987062120388    2.01247219571165
H         7.80278902552440    4.24130370766401    0.19777867963958
H         8.41765593693435    1.88361236524481   -0.18632373817206
H         7.49717787475039    0.12521475929667    1.28752522978917
H         6.38261772544017   -1.93820677372922    2.32907264989990
H         4.99206665069749   -3.33346240999937    0.86661580542889
H         2.71151501544885   -2.61229348951386    0.25960315822807
H         1.84396532161781   -0.46090764788507    1.10588169056857
H         3.25455866092131    0.94987214972025    2.56448407518268
H         8.39290142090382    1.05732368695548    3.91208596263070
H         9.94276383431957   -0.14905299676191    5.39509603879647
H         9.18202761359836   -2.15407988381138    6.61747562016214
H         6.85330790541288   -2.93320515178426    6.35806013563902
H         5.31088009381546   -1.73344567927358    4.87090221538601

