54
CSD_code = UFOZOG | q = 0 | S = 0 | Stoichiometry = C20H27Cl2IrO4 | MND = 8
Ir        9.62945405622340    5.37295078345887   12.12085526940230
Cl       11.45459757618509    6.43084171295715   11.13652695008644
Cl        8.71520235490827    8.24485529260204   13.23781732162203
O        11.05503597807849    4.71101061220336   13.62221526622683
O        12.39168526215717    5.45778185396790   15.24612845150724
O        10.92201667649714   10.06539394962704   17.27901670825659
O        12.68398355499553    9.03910806821201   18.22077508464997
C         7.43338896627174    5.13271845813714   11.74988124777713
C         8.14447119614332    5.54019046999722   10.56815180081892
C         8.96377298531512    4.41169688719309   10.12882836456046
C         8.88069869942490    3.42102958862664   11.10487745219335
C         7.97354871486392    3.87960233872511   12.14624914218896
C         6.28239425479495    5.85672900994278   12.36712073190920
H         5.37782314465800    5.65201413317112   11.79269907993753
H         6.44859081162129    6.93136670781146   12.36582917558675
H         6.11882485893008    5.53551227072308   13.39221758649526
C         7.81541998237730    6.72068484241740    9.71256329100346
H         7.05042103153443    6.44816650105804    8.98345587064024
H         8.69866672907712    7.05913750842860    9.17671754746403
H         7.43936808406588    7.54291098516298   10.31574301654217
C         9.69889746173292    4.38470702922554    8.83094862814253
H        10.17935812668658    3.42345315259987    8.67008851956918
H        10.46627820473825    5.15892971510147    8.81639838530974
H         9.00785647303139    4.57553140336663    8.00997795454768
C         9.51308264598324    2.06812018481684   11.09805058472153
H        10.25400839754122    1.98643069176195   10.30743125766269
H         8.75240399688432    1.30049497731219   10.94570752217070
H        10.00691806927275    1.86896153604281   12.04787955008369
C         7.49176362105567    3.01898032609016   13.26771181362788
H         7.07789898730029    3.61895975494744   14.07457169882826
H         8.30263520780204    2.41404826737084   13.66733639959347
H         6.71301223552278    2.34419554755355   12.90705691011050
C        11.37162188165157    5.61270256580822   14.42627012556710
C        10.61337779241894    6.84793585664402   14.46220740271187
C         9.69652831421709    6.88065338418111   13.42593138691042
C        10.78498607581555    7.89920173484655   15.43242341705086
H        10.09830649903631    8.73284788245643   15.34019511763253
C        11.68062884817937    7.96824091422105   16.42762215808959
H        12.42331988567747    7.21450708541304   16.62048260542966
C        11.69021055006430    9.13235250502992   17.31926991630403
C        13.13750050059450    4.23983685122469   15.14351873514046
H        13.29303977238187    4.00742388513562   14.08569154243680
H        14.09351363046059    4.46354248631103   15.62050807254095
C        12.43117155262454    3.08929044557106   15.84566370626246
H        12.23997537748981    3.34417061985524   16.88518270719712
H        13.05584087646781    2.20154019398107   15.80659564404028
H        11.48499044762020    2.87774314028606   15.35444879225876
C        12.80237860207806   10.12303642356625   19.13883648051310
H        11.87224370350904   10.20392439064047   19.71394568899802
H        12.92960423203881   11.05379617599995   18.57362322399275
C        13.99080572249943    9.85967009139234   20.04448556279895
H        13.84698912982589    8.93051180861074   20.58946287084001
H        14.09856204378337   10.67555378274422   20.75335118270653
H        14.89932621587952    9.77830321545425   19.45385507731023

