50
CSD_code = UFOZUL | q = 1 | S = 0 | Stoichiometry = C20H27IrNO(1+) | MND = 8
Ir        4.89663585706141    3.42449997423414    9.18034238042363
O         3.82855784733488    2.96965739353396    6.40025074713980
N         5.74854764805557    5.46943624792297    8.92339620409898
C         5.11029788169142    3.49195819762532   11.40725723180681
C         3.72142910836482    3.83240251650428   11.11554842692316
C         3.12863470710342    2.73617135156777   10.48355451542188
C         4.15810845019053    1.71172949117318   10.31502674680323
C         5.33361040998415    2.15469598058191   11.03145653031109
C         6.02549709814298    4.30293492121272   12.26886304474348
C         3.02189847663196    5.06226326324493   11.58832551074264
C         1.68376506624024    2.55438734549601   10.16288943350174
C         3.87521843465636    0.30037163141572    9.91989510664427
C         6.51455815034940    1.32210555934849   11.39729878941045
C         6.71932211974506    3.03611042437895    8.25784939124756
C         7.22174814099170    1.75784461600170    8.09157013865572
C         8.51189086336077    1.55879095242516    7.62225285125426
C         9.30172283507110    2.64718945811277    7.30361155302999
C         8.79602000558432    3.92717737511376    7.43549240057347
C         7.50635669048176    4.13683026000531    7.90879133280410
C         6.90125386534639    5.52720121559640    7.97383665987368
C         7.88333884981591    6.58945223840219    8.47029926472110
C         6.36075868191033    5.89733147805633    6.59180970126209
C         4.23585582996695    3.18620822866757    7.44485042167205
H         6.10393799448559    5.70185209493580    9.85198450473456
H         5.08329908107595    6.20114624025660    8.67200613515572
H         7.06743509606906    4.15641767073224   11.98705996464166
H         5.91875010272276    3.98702459237205   13.30767839222958
H         5.79198251690161    5.36554541618255   12.22716323445915
H         3.69012986013713    5.91989012029717   11.63693534548450
H         2.63026425373273    4.89229386388702   12.59256708712732
H         2.18261999512002    5.31259154165224   10.94301440338871
H         1.18929287513793    3.50705226773644    9.99025400342902
H         1.18927956379909    2.06636246905126   11.00420205767664
H         1.54543843240826    1.92755633330294    9.28553063430474
H         3.13624407194400    0.24951644628494    9.12412072047172
H         3.48023137327739   -0.23883574871823   10.78254719991348
H         4.77557473990048   -0.21108737741920    9.58938476496599
H         6.63114958349747    0.47491864932156   10.72831633965428
H         6.37547716190615    0.93603327994924   12.40837814185900
H         7.43480533883087    1.90176521332706   11.38278360285323
H         6.60771716291195    0.89711141702345    8.30815547053553
H         8.88840246750935    0.55541349517960    7.50000851574656
H        10.30563412849926    2.50158282071695    6.93741220392350
H         9.40940497278753    4.77023798340453    7.15993391793615
H         7.36532555487359    7.53095910285197    8.64412777201666
H         8.65616094837812    6.77519829262536    7.73187236814022
H         8.36478518668327    6.27150314103915    9.39303487342914
H         5.58120221259703    5.19854713533408    6.29570986695752
H         7.15680538950325    5.84771467811304    5.85551606948064
H         5.95652291722803    6.90733873994076    6.59233402642748

