84
CSD_code = UFUDAB | q = 0 | S = 0 | Stoichiometry = C26H46B9NOZr | MND = 12
Zr       24.17410279015579    0.54643322398408    5.68467626828723
O        24.45009800513793    0.15062982330436    3.29777211691185
N        25.13631752203995    2.29877964270108    5.11343949831484
H        24.41167285602271    3.00865031588007    5.25426077663696
C        22.59129596450307   -0.75031014975105    7.28481781585473
B        22.65722412600731    0.90074032476574    7.47175475555847
H        23.40440740248616    1.35684577445682    8.29376689215104
C        23.69929098528182   -1.64409015390475    7.89562078215190
C        23.91170275430105   -1.35686839063629    9.39097078868016
H        24.02874229185794   -0.29597240104271    9.59091029788442
H        24.80124597906812   -1.87713847379640    9.74366979393830
H        23.05744996763839   -1.71197259142943    9.96234849505912
C        23.44626311854191   -3.16020077656797    7.78637580838531
H        23.19001537091935   -3.48042179646778    6.77968533093077
H        22.63676198871226   -3.45854330188267    8.44792802059451
H        24.34634105937857   -3.69582488694745    8.08659230776135
C        24.94061540508087   -1.27291248188618    7.10146168099318
C        25.25444909877335   -1.73316467323731    5.79732035673401
H        24.85292674510004   -2.62083963825700    5.31868829433144
C        26.38684320600785   -1.01942318001906    5.34236598853654
H        26.95887195733577   -1.24753308446802    4.45294966307829
C        26.75415579187612   -0.10419767762134    6.33753687225177
H        27.64402651049177    0.50573704138574    6.34814702358247
C        25.84361057117686   -0.22381512127051    7.40713289380417
H        25.94717292966068    0.28169607502076    8.36018548713662
C        26.33090706710615    2.81274569793424    5.62045705357226
C        27.54536070228817    2.59935743514185    4.92561908827216
C        28.72125756813133    3.15205316539208    5.40167739639024
H        29.64221628829550    2.99713147196397    4.86021940785443
C        28.74018495152303    3.92214560152027    6.54992242711968
H        29.66525099756366    4.35282075123892    6.90302696007046
C        27.55938846045196    4.14647725209735    7.23124168215539
H        27.57478102050532    4.76009380222354    8.11907106011118
C        26.36269698662893    3.60185459581071    6.79622685698865
C        27.53618133259967    1.84920689423780    3.61054063857176
H        26.64215416907629    1.21565076079431    3.60543941751475
C        28.75990475800069    0.95528183408250    3.40173809282103
H        28.93316913298742    0.32241606589793    4.26792064668507
H        29.65497390803861    1.54629774147909    3.22419696431674
H        28.61120511423771    0.31728043203173    2.53119389521162
C        27.44337398018530    2.86905520785919    2.46924620512605
H        26.55651842498903    3.48910205424714    2.57983288385622
H        27.41056617900975    2.36988709641357    1.50213754231625
H        28.31308961887411    3.52281793738630    2.48546919458483
C        25.08651079123626    3.87232561692496    7.56678398019157
H        24.34409787105658    3.10512167693090    7.29602836840719
C        25.28209719268668    3.78066951706209    9.08232331770872
H        25.81562945093468    2.86844219038240    9.34218929377145
H        24.31244876109747    3.76925345538644    9.57555060152046
H        25.84380292775726    4.62867423993269    9.46525248240389
C        24.51958578195002    5.24478531210956    7.18584948459768
H        24.34324897412896    5.30603639452450    6.11340208786458
H        25.22073826813192    6.03099444260320    7.45828710510656
H        23.57801820417933    5.42083661742940    7.70093454734944
C        24.46055548544620   -1.01520479539146    2.47024070472021
H        24.99043557485372   -1.81040058317978    2.99667622087797
H        23.42883347882676   -1.33110106362827    2.25462922992021
C        25.16305798550632   -0.56105735118469    1.19461466770195
H        24.96793069773379   -1.21865038530950    0.35153358767115
H        26.23834892377940   -0.51343006307774    1.36685136923511
C        24.58694262021796    0.84504159904865    1.00306862289381
H        25.32319714747038    1.53210084273311    0.59430106177216
H        23.73135642668745    0.82106421458548    0.32963845585854
C        24.14678907719253    1.25660466255111    2.42039770919183
H        23.06775084631791    1.45819504248672    2.45391236346857
H        24.68768660187608    2.12087825288193    2.81483612764223
B        22.12555021694241    1.62392100235603    5.93180189352513
H        22.32972838578901    2.74870206240020    5.54579191158896
B        21.87899398300967    0.22299106119743    4.91155011919904
H        21.94726012724738    0.09039359451383    3.72145266752105
C        22.15735295574155   -1.08869828390541    5.84095296863074
H        22.51533270190203   -2.02950538217999    5.41152004534618
B        20.98013734961160    1.48346486789531    7.30074410553182
H        20.59774502303255    2.45121443283461    7.85912679517511
B        20.45717476035263    1.03597300360332    5.65757487569690
H        19.69896833984761    1.68054324714052    5.02129783781912
B        20.48611386533934   -0.71536700284804    5.55943315031048
H        19.87720057194474   -1.41103377566937    4.82536370050343
B        20.97530372269983   -1.35914777712336    7.11471794766976
H        20.74443285439821   -2.46361099247050    7.44424539388777
B        21.28910937924803   -0.01359389578742    8.18793776948002
H        21.23086931629615   -0.16765918403369    9.35323837245964
B        19.93440828957344    0.04712387502143    7.05734433111267
H        18.81217000996340    0.00205007122734    7.41144930169038

