50
CSD_code = UFUFIK | q = 0 | S = 0 | Stoichiometry = C17H29ClMoO2 | MND = 8
Mo        2.58679506273588    8.14362400766604   12.90311453783405
Cl        2.84722389062447    7.22325703180471   10.83512554213708
O         0.94709614267627    8.26341638916969   12.88136880539591
O         3.07142999620270    6.84558623043935   13.78711229938224
C         4.44381365917517    9.41834324876635   13.83115557659348
C         4.61569520875241    9.37151462774956   12.42844303022293
C         3.50110481115073   10.06481471242490   11.81521153777906
C         2.66911420325152   10.52116191747616   12.84356158442704
H         1.80083571058891   11.15327675177882   12.72227568485945
C         3.17518242945729   10.05511305156994   14.09367921129846
C         5.48015549239816    9.02733362457635   14.86352858493272
H         6.27594476113384    8.49611566858647   14.33835794245415
C         4.95999706620248    8.07512979253788   15.94418079273165
H         5.80002046404189    7.64295909252642   16.48412855994826
H         4.39206270979470    7.26842635232226   15.48247589979520
H         4.32367043443414    8.57983386646736   16.66530116406421
C         6.10785324029779   10.28643380385722   15.48040276112476
H         6.93333024295221   10.00335389459165   16.12967840838559
H         5.38814397944023   10.84618167694762   16.07069109115797
H         6.48851260701512   10.94386305020350   14.70185359084845
C         5.80900365337171    8.87029295818994   11.63734882893145
H         5.52101791637298    8.91185417838520   10.58076074266232
C         6.19160747605144    7.41277454182735   11.92917306106462
H         6.76640124335733    7.01568703016972   11.09535956726874
H         5.30284699468336    6.79384163030266   12.05595745650511
H         6.80358187286541    7.32179398733601   12.82288738929553
C         7.02256985950312    9.79224487009824   11.81739086208328
H         7.80334056410856    9.51223765726889   11.11402062574393
H         7.42833282450285    9.71864686462371   12.82234856006663
H         6.75038188239915   10.82952141117376   11.63524238800377
C         3.34520870322553   10.44868412252326   10.36163215738818
H         3.81437249610076    9.68275583749761    9.73363633141108
C         1.87103224404221   10.53656904923712    9.95891498771763
H         1.79001016409244   10.64213178378850    8.87964636776447
H         1.39022422112592   11.39778982887699   10.41791228579036
H         1.33597929211436    9.63374534589023   10.25628755207180
C         4.04339186912069   11.79051653082601   10.10749647341732
H         3.91660459045036   12.08558432340194    9.06885595029635
H         5.10746585883590   11.72052202236326   10.31729152319331
H         3.61722707128246   12.56462136327729   10.74253111579414
C         2.58685394645940   10.45862683050456   15.43036722847036
H         3.35052226538000   10.34655998755618   16.20424919098977
C         2.14541347966151   11.92615965579329   15.42374825908377
H         1.87759513893647   12.23434976576137   16.43178017154522
H         1.27575058073344   12.06958744409007   14.78819383101782
H         2.94936608679287   12.56762555708375   15.06873668802088
C         1.40905357841881    9.54513807764427   15.78883083199185
H         1.01415582874852    9.80182602316221   16.77025679507255
H         1.72706899603633    8.49890122355473   15.79687308658052
H         0.61133718890206    9.64887130632912   15.05302308538387

