39
CSD_code = UFUHEL | q = 0 | S = 0 | Stoichiometry = C19H15FeO2PSe | MND = 8
C         0.38304949079927   11.09247883941130   11.22960752088572
C         0.71704500725859    8.94611982278284   10.25759683868194
C        -2.27972322601776    9.92869051791849   11.93407108411223
H        -2.81271714963853   10.79132269942080   11.56852518298111
C        -2.16758268515800    8.68504305378258   11.27689193808027
H        -2.59167705534008    8.43248162774156   10.31848830186759
C        -1.49379966228652    7.79089320730511   12.14997156366068
H        -1.36592358613594    6.73299163650005   11.98714590983396
C        -1.24544373856538    8.47018664893099   13.36677607640766
H        -0.83784559016308    8.03572204759092   14.26596065702310
C        -1.69742427429033    9.80008896050007   13.22331025898779
H        -1.72097201094037   10.53993277843213   14.00589165967349
C         2.15460748264811    7.60578323505736   13.25529580558950
C         1.77148866748922    6.58797115798350   12.38919958691631
H         1.21163477980016    6.83119958800675   11.49453709460178
C         2.10655945498678    5.27675276332247   12.67154245413682
H         1.80764299392890    4.48816458314109   11.99605259942048
C         2.82253820967989    4.97445039700066   13.81913149566915
H         3.07901484951237    3.94882017087864   14.03926889862624
C         3.20554939303876    5.98647901208755   14.68327528335440
H         3.76323767087395    5.75400430590522   15.57829459873107
C         2.87253095058384    7.29953538574398   14.40411605357563
H         3.15923266880581    8.09470678351662   15.07895827689401
C         3.21309835979217    9.89373920479327   11.94898523571018
C         3.63191311939179   11.21584639096878   12.04404104303255
H         3.11796738371172   11.88869361397120   12.71771976040834
C         4.70833464565954   11.65962414163046   11.29926180636782
H         5.02886978972080   12.68771454932156   11.37887248431853
C         5.37309148582603   10.78530929800082   10.45556927023880
H         6.21383771615589   11.13060100527303    9.87232811716687
C         4.96422086327746    9.46452650136030   10.36430775242329
H         5.48650885499873    8.77978625176261    9.71215928618064
C         3.88707890898191    9.01577506189173   11.10546525422348
H         3.57427403697388    7.98325905071716   11.03468409661109
Fe       -0.10796990242577    9.48193797881307   11.69915901394402
O         0.72372355560143   12.12117530053861   10.87060680645508
O         1.23866085982582    8.68336789903251    9.27238312802362
P         1.74608268510307    9.36113012763800   12.90755290707790
Se        1.62038499653805   10.46029440131027   14.68929489810092

