50
CSD_code = UFUHAH | q = 0 | S = 0 | Stoichiometry = C25H20FeNOPS | MND = 8
C         8.12627053958606    2.71897706892968    0.34090454298701
C         8.83206911321683    4.42325943851605    3.74880138873242
H         9.67354306049468    4.86721938141276    4.25395837007653
C         7.79627862085158    5.11821606429681    3.09105768935942
H         7.74994148119540    6.18311412205393    2.93455716098551
C         6.80648264855295    4.18497095154332    2.71024511487159
H         5.85476905968903    4.42158380070807    2.26480852527219
C         7.21185050795740    2.90573907007067    3.17528382901076
H         6.62413782649944    2.00319605758710    3.12910164887315
C         8.46166030035906    3.05114399209426    3.81107753666358
H         8.99907882009681    2.28175487809336    4.34208538174237
C        11.07963877580202    4.22605012773319    0.23334816291699
C        12.56662333368264    5.34597791755048   -1.23316460691976
C        11.70073697182626    5.87826566753013   -2.18907181012092
H        10.67496669435584    5.54412558806757   -2.22190355247975
C        12.16627981787667    6.80966002715985   -3.09616790764807
H        11.49191684045519    7.21518435952366   -3.83660538875607
C        13.48594232829299    7.22987783461255   -3.05830213320781
H        13.84111489787061    7.96489817989866   -3.76555209652992
C        14.35023802522223    6.70048366850808   -2.11276248094776
H        15.38126357076632    7.02288117775790   -2.08240730395208
C        13.90113963229878    5.75621975209860   -1.21218552582733
H        14.56245166656884    5.33560907559888   -0.46918026661447
C        11.18941966034781    1.33815261192896    0.63922338197325
C        12.41977812243175    1.22850286545596   -0.00227963362830
H        13.07616207449422    2.08668004301205   -0.03280164390504
C        12.76297651124717    0.03312213545512   -0.60588163888306
H        13.71215391014888   -0.06036972466315   -1.11267818947539
C        11.89120425588693   -1.04499579775631   -0.56439851668046
H        12.16587817867664   -1.97628693642716   -1.03756058296670
C        10.66761753800639   -0.93313725064739    0.07644008832670
H         9.99118574709537   -1.77469115138025    0.10283327749312
C        10.31210351894550    0.26064872552618    0.67832458111431
H         9.35912281320402    0.37612880335739    1.17901933517187
C        11.97821577109523    3.14338345670177    2.69522234726239
C        12.52748328928367    2.05498928603790    3.36478570645348
H        12.23640676806578    1.05150684683560    3.08435250404441
C        13.44775784368248    2.26314371380496    4.37630638208916
H        13.87954396467709    1.41791462328704    4.89210872462756
C        13.81383599151979    3.55188230712400    4.72913087236102
H        14.53359506916957    3.71089504786246    5.51837512495162
C        13.25644765298109    4.63812120306454    4.07208036161877
H        13.54218877396131    5.64241139964792    4.34890504181545
C        12.33456371415436    4.43810009368789    3.06240978842653
H        11.89504847059824    5.28079195548877    2.54575178143681
Fe        8.69187887459861    3.61592098230935    1.72167186620146
N        12.19784254998382    4.36503302980029   -0.33351409966669
O         7.71839028592130    2.14070701141151   -0.56203893835339
P        10.70407201396637    2.89422763060558    1.42759069760756
S         9.60973210232759    5.19150888712566    0.31149510209767

