70
CSD_code = UFUKOV | q = 0 | S = 0 | Stoichiometry = C36H28Cl2NiOP2 | MND = 4
Ni        3.21860207428342    2.21135046542835    4.15656261090364
Cl        1.29241603747992    2.43883165802524    3.34674924767184
Cl        5.03346751384561    1.83811920759903    5.13758694616228
P         3.16647390649010    4.03707254491213    5.33435434205709
P         3.57354930898354    1.11062807823425    2.29547748559976
O         3.95167121459946    3.98489918459512    2.71842358986346
C         4.63411463440732    4.93649203760486    4.71316002761762
C         4.87521326739127    4.77556170675240    3.33824652158164
C         6.00825895649714    5.31275256353443    2.75152412719264
C         6.88830137982982    6.04335961934759    3.53543751797321
C         6.65399033183028    6.21793350757745    4.88740020810248
C         5.53673311455347    5.65056700532150    5.48093290641016
C         1.81615846293798    5.21269262731715    4.98947353127664
C         1.97120125876801    6.37288295754142    4.24307732207644
C         0.88022073252785    7.19185094082552    4.00824644640236
C        -0.36527189633083    6.85584374908212    4.50975707369616
C        -0.52502608894086    5.69425794996430    5.24950168359132
C         0.55990900418338    4.87383282037076    5.48433970947125
C         3.28341845324591    4.17775354466119    7.14109178642597
C         3.10849860971663    5.41392778502864    7.75817670809480
C         3.18254009384916    5.51294135763820    9.13467384565000
C         3.42009067128315    4.38321152078636    9.90252165846095
C         3.57806628424823    3.15081937231511    9.29232177304067
C         3.50687364408907    3.04618612386079    7.91424299038254
C         3.65146406392054    2.41046038475021    0.99738440847258
C         3.89662274533120    3.73609090401912    1.37392270740733
C         3.97492372888201    4.73765116818058    0.41571774467193
C         3.85802282345143    4.41040670637092   -0.92344318074186
C         3.66381226944165    3.09406427774540   -1.30896861640493
C         3.55989952453775    2.10005045295215   -0.35264871506029
C         2.31121691743845   -0.06504516338476    1.74288836847807
C         2.35981595409309   -1.34099708540417    2.30084511460686
C         1.39074476271010   -2.27500967907493    1.98780297399362
C         0.35696597896824   -1.93548476312582    1.12953262048909
C         0.28664953539436   -0.65690298466902    0.60146254509444
C         1.25411485637953    0.28246627595267    0.91072747793490
C         5.15096357099306    0.31186173471519    1.80439197625815
C         6.32595215024826    0.95264597710228    2.18732101400531
C         7.55426167444960    0.45325887418025    1.79812336499289
C         7.62148907385246   -0.68808054772274    1.01628736468456
C         6.45554893443503   -1.32238393273036    0.62197227905457
C         5.22355968547465   -0.82610451391830    1.00967197441558
H         6.21874176055873    5.14083998735443    1.70651205742031
H         7.77248726686570    6.46409244975706    3.08076128616600
H         7.35256736687353    6.77972637458676    5.48821127460092
H         5.37422485718322    5.75167276879558    6.54339175207612
H         2.94282695393432    6.64195944191224    3.85178658321224
H         1.00410211043885    8.09565999446292    3.42878867699800
H        -1.21381085772687    7.49640710130919    4.31954732061136
H        -1.49803858403704    5.42705440934560    5.63434557614869
H         0.44604520323571    3.95593587872292    6.04622575778551
H         2.90832642253590    6.29112076810533    7.15771209945601
H         3.05091382770138    6.47318273743221    9.61193315794826
H         3.47578444441754    4.46584355136964   10.97804866865123
H         3.75500278185350    2.26930218697973    9.89035370272557
H         3.63040805787106    2.08776835885989    7.42999663165637
H         4.11065874396406    5.76445261012748    0.72145183912426
H         3.91899524170950    5.18950673871176   -1.66818108610235
H         3.58634826770567    2.84365245452632   -2.35607703905894
H         3.40853628565377    1.07232496346219   -0.64968134898540
H         3.16096407319460   -1.58879458372132    2.98628223862325
H         1.43544316600628   -3.26446150818279    2.41921246703749
H        -0.40257188273699   -2.66354803212997    0.88535664999358
H        -0.53273657443903   -0.38553665401554   -0.04803182972471
H         1.17947830966604    1.28797282363011    0.52430593499153
H         6.27433051926890    1.83489625554167    2.81050368052129
H         8.46001200959065    0.95263013110061    2.10909372841890
H         8.58012639676920   -1.08314588492874    0.71404774038448
H         6.50357577088422   -2.20949176090572    0.00682746629534
H         4.32125884119373   -1.32943997646323    0.69320353098928

