49
CSD_code = UFULUF | q = 0 | S = 0 | Stoichiometry = C24H18FeN4S2 | MND = 6
C         9.53553953094525    0.61750364531283    5.26106432557315
H         8.81069147469049    0.56364566535268    6.06015359480048
C        10.37149185643116   -0.44973332726986    4.99459380369240
H        10.30434409885502   -1.34835987220585    5.58570166266880
C        11.29835728831984   -0.33740100321364    3.95940371273949
H        11.96684706488365   -1.15385367045785    3.73244655760336
C        11.34486334448064    0.83277105842302    3.23769847843437
H        12.04598787006021    0.97072188860182    2.42982868548664
C        10.46566667827090    1.87448432002588    3.56710349732594
C        10.40907532354082    3.13068151268902    2.92140024321095
H        11.08401237910064    3.36667418055323    2.11097632795992
C         9.31663261414350    5.22378928536208    2.86801293930376
C         9.97769253189468    5.74540551508672    1.74592237046185
H        10.70970066738789    5.15009053190894    1.22178927023641
C         9.70068514357451    7.01300145537287    1.29260870265921
H        10.21727208795528    7.39790671712168    0.42626829401027
C         8.75548068517281    7.80389602006340    1.94794460383736
H         8.54648170640641    8.79949039819515    1.58566845272326
C         8.09263800899652    7.31860395552762    3.04755407487965
H         7.35853097515527    7.91425065128236    3.56744420598773
C         8.35614466043961    6.02828887576663    3.52267610355467
C         6.82874290462468    2.69775764641498    2.52789396705500
H         7.62980841129871    3.11341209374433    1.93430128248537
C         5.68003753433201    2.22084516340015    1.92634654037483
H         5.57612581614738    2.26022913930016    0.85438055941308
C         4.66631879444177    1.69900036319415    2.72847247039178
H         3.75605354663933    1.32454700260728    2.28554043256765
C         4.84860261191132    1.67434150939079    4.09173443646049
H         4.09332545433042    1.28446585720527    4.75567226349432
C         6.04156531640431    2.17690516363762    4.63112117941395
C         6.36094953296139    2.22138002695746    6.00741790673990
H         5.66004998801848    1.86640424331793    6.74954206177225
C         8.00715742580213    2.83463703385988    7.58578781990593
C         7.35467508081205    2.34688745081023    8.72791441934456
H         6.40052001995540    1.85052485815432    8.63752458113366
C         7.91973674958319    2.48420461050155    9.97327244585298
H         7.40489025654341    2.10089935179947   10.84135639117850
C         9.15521363450093    3.11707672045890   10.11959182887684
H         9.59008578283639    3.22208314310309   11.10243733053060
C         9.81639787509431    3.60293576624083    9.01921731921238
H        10.77221977096288    4.09472034589797    9.11163518705148
C         9.26082191698804    3.46906790877359    7.74115503747717
Fe        8.52225972800288    3.34381272695747    4.84113068450057
N         9.56731870787780    1.75319314782363    4.57647292801825
N         9.51128861123185    3.96551641702628    3.39134093919161
N         7.02095843035018    2.68288070725429    3.84028633592279
N         7.53464008721658    2.73369650505354    6.29674484626190
S         7.54100512918190    5.41067662940864    4.89525862071584
S        10.07099489124303    4.07384066420866    6.35989027750772

