145
CSD_code = UFULAJ | q = 1 | S = 0 | Stoichiometry = C76H60N2O2P2RhS2(1+) | MND = 4
Rh       -3.08007327783112    3.49115503463470   17.91450476025309
S        -1.37962762284951    4.99658689734582   17.68432543185305
P        -4.70471797216651    1.98780678787563   17.51947568130855
O        -2.91820424651900    9.83679171948942   22.08329987657143
N        -2.88815995209003   11.08747593956499   20.20625293634948
C        -4.89813268305816    0.40178738623729   18.37643205095321
C        -5.19404048398316    0.43206987317051   19.73792952116390
H        -5.36492520921112    1.38127683441796   20.22759510861617
C        -5.26649223517992   -0.74193357860369   20.46148110141903
H        -5.49975625006291   -0.71329446387478   21.51509902786898
C        -5.03792345032464   -1.95642687428569   19.83295496428462
H        -5.09925080450154   -2.87475376514691   20.39654611496471
C        -4.72440908898786   -1.99023659017450   18.48475721919361
H        -4.53985610660589   -2.93462240210291   17.99555706757713
C        -4.63926704049457   -0.81593017832838   17.75740411748723
H        -4.37314217225702   -0.84599387549391   16.71065190316977
C        -4.72279487578554    1.59794024983505   15.74589600918373
C        -3.73583145335655    2.17144228991310   14.95081743050656
H        -2.98203652240487    2.80286129170624   15.42529339513093
C        -3.71467929800409    1.93892452593652   13.58802994086484
H        -2.94895084692181    2.38585723480556   12.97181784610816
C        -4.68257935525861    1.13048028676742   13.01438019913301
H        -4.66849498393758    0.94386056259127   11.95154795329347
C        -5.67320883913277    0.56235710035499   13.80109093722202
H        -6.42773904543563   -0.06357927796390   13.34914668536933
C        -5.69970083607961    0.79555132425589   15.16384330081723
H        -6.47095348537696    0.35012121675715   15.77759354799053
C        -6.35926434434571    2.81287347719145   17.73026418526306
H        -7.12643178552011    2.28866903218581   17.15490250175432
H        -6.63361832425370    2.78592976703703   18.78830497429490
C         0.05493131197746    4.24599511306214   18.56223376994194
H         0.92831982295300    4.85123418384364   18.31807270385009
H        -0.14220293441860    4.29800426528908   19.63406399315754
C        -1.67236421761125    6.45175738767374   18.67115463666860
C        -1.30879419082992    7.68575970623742   18.15798269021509
H        -0.79742185755365    7.74340688961287   17.20933623676208
C        -1.62056354755542    8.83628963773777   18.85966568816943
H        -1.30568630126603    9.78803276321453   18.45777064472164
C        -2.30051283064507    8.75196339462069   20.07004640752745
C        -2.62157425651380    7.49929675177663   20.59021812489271
H        -3.12154933402012    7.45678609910460   21.54595945136954
C        -2.31638804277418    6.34826393169286   19.89441067290775
H        -2.58702400815098    5.37367533006842   20.28317087612925
C        -2.71288148368846    9.93863861268029   20.88943187928511
C        -3.26418914064946   12.33816540871703   20.84495155578225
H        -3.34996920592064   12.13229065487884   21.91393890311141
H        -4.24750794362748   12.64449176101129   20.46990569156661
C        -2.25671666108688   13.42011999015506   20.55811752850582
C        -2.58820554831188   14.41124841459583   19.64378015115224
H        -3.56595188478606   14.39449614029679   19.18125677272861
C        -1.70478527207669   15.42208563104466   19.32296309726821
H        -1.98712759455684   16.18711517222977   18.61450659399355
C        -0.44233188422191   15.47308629401901   19.91262624270922
C         0.49010621300281   16.50720743695410   19.60622395955937
H         0.19404006775009   17.26111097533399   18.89083673988098
C         1.70679403892239   16.55087839449709   20.19480889215917
H         2.40618652328830   17.34053662116524   19.96115492321551
C         2.10224327881026   15.56105808240399   21.14183448427745
C         3.35045662807331   15.59092084087758   21.76530438052178
H         4.03939711791971   16.38753915005512   21.52479115298994
C         3.70684147808936   14.61897205930807   22.68238695370176
H         4.67615317315282   14.66020390393193   23.15692806888854
C         2.83136233816906   13.59639867639251   22.99740679015308
H         3.11437845137528   12.84079591264384   23.71601066529810
C         1.57244085482587   13.52772870334984   22.39856209183733
C         0.63944155027265   12.49611158530183   22.70441082251011
H         0.92889389714739   11.74560694608447   23.42622695297845
C        -0.58184131641054   12.44797788445344   22.12301353979472
H        -1.26107061563340   11.65477154683288   22.39129814262007
C        -0.99266112905869   13.43169098366815   21.17235721284937
C         1.19606200989593   14.51852126397872   21.45958003477381
C        -0.08072831964262   14.47077695752944   20.84733579348336
H        -2.65864107746182   11.13666505720647   19.22735358797281
S        -4.78143425530977    4.99624488415613   18.14476175863722
P        -1.45645495247553    1.98688385328135   18.30648154847542
O        -3.22516062033212    9.84132712965524   13.75932163503490
N        -3.26686146198425   11.09318061553700   15.63494176618771
C        -1.26526424947893    0.40041670106040   17.44985561594272
C        -0.97146219780981    0.42940590643536   16.08788480579648
H        -0.80063358078527    1.37803214148428   15.59711656852385
C        -0.90099354472614   -0.74525154412492   15.36518733735397
H        -0.66939640965016   -0.71760415831006   14.31117144432067
C        -1.12933201466210   -1.95908620924876   15.99506732530174
H        -1.06945004579840   -2.87791289999596   15.43214237135164
C        -1.44060537168072   -1.99159722510635   17.34382866319381
H        -1.62485595658544   -2.93545676185613   17.83415714781137
C        -1.52382912632704   -0.81663684656830   18.07031897451638
H        -1.78825206070948   -0.84564478037671   19.11753952055907
C        -1.43455815025961    1.59718108259400   20.08003302464350
C        -2.42121257539480    2.16868031746509   20.87692324291639
H        -3.17712004065833    2.79860715983498   20.40385820972819
C        -2.43941422819255    1.93595324804790   22.23972660590064
H        -3.20492415709574    2.38125596685735   22.85738039277171
C        -1.46885528545211    1.12938438235345   22.81154051689470
H        -1.48056397976111    0.94271375370807   23.87439279173487
C        -0.47866650449082    0.56309375013404   22.02294792465138
H         0.27786063848177   -0.06149483940435   22.47342315115865
C        -0.45519156486769    0.79639596297032   20.66016780552172
H         0.31555577053364    0.35216983809861   20.04490692975507
C         0.19783691173069    2.81139656348590   18.09173340336013
H         0.96648584511312    2.28609766053880   18.66411149099861
H         0.46900523807798    2.78554511827592   17.03283099902433
C        -6.21408602343076    4.24794149254269   17.26187376555598
H        -7.08779087717367    4.85344415870310   17.50425940296249
H        -6.01384498872105    4.30108658929955   16.19068254142535
C        -4.48561385521482    6.45347916450748   17.16184883284149
C        -4.84593662380286    7.68699955408031   17.67852389039910
H        -5.35680542026514    7.74324861030409   18.62752845291836
C        -4.53163228729491    8.83880350139757   16.98000617401135
H        -4.84409280286582    9.78997853688541   17.38512593922680
C        -3.85232870928850    8.75632556981633   15.76914028549847
C        -3.53441143023741    7.50421004559769   15.24558071495012
H        -3.03477673490075    7.46333285288883   14.28958910475932
C        -3.84222945391384    6.35193122730900   15.93808901902296
H        -3.57397785640446    5.37788115496804   15.54641100049494
C        -3.43708827453718    9.94355711744774   14.95196746111835
C        -2.88971262017094   12.34375989172592   14.99667641118886
H        -2.79942770905832   12.13706379890034   13.92820131217710
H        -1.90824883276821   12.65157322774225   15.37533757943612
C        -3.89960044965358   13.42472959269109   15.27851896329807
C        -3.57138658343274   14.41944344004159   16.19012449028889
H        -2.59417928025114   14.40600675742765   16.65381788413508
C        -4.45735310518851   15.42939414961973   16.50665855846685
H        -4.17764828899441   16.19711781934733   17.21325960563381
C        -5.71920146258223   15.47578457574169   15.91527933564710
C        -6.65423352576372   16.50891650519045   16.21711310425053
H        -6.36051174460361   17.26604069859773   16.93006192791264
C        -7.87045383336150   16.54778646981671   15.62722232399620
H        -8.57180902659516   17.33673921014518   15.85735347116360
C        -8.26287369784064   15.55367349757006   14.68341737035919
C        -9.51075531071422   15.57820536653102   14.05906083895328
H       -10.20190727634226   16.37387749336047   14.29633626274998
C        -9.86412813965534   14.60216056626148   13.14512520277492
H       -10.83329254974711   14.63929788021042   12.66994196061660
C        -8.98580667919511   13.58084298627893   12.83402129114411
H        -9.26639576636214   12.82206217782200   12.11780239587920
C        -7.72704812846766   13.51751452167904   13.43381982140696
C        -6.79099248423233   12.48762128458459   13.13152725084159
H        -7.07776849854367   11.73443114589067   12.41142763006723
C        -5.57003664456476   12.44449531101391   13.71399267599568
H        -4.88816409801605   11.65279461400952   13.44803040216169
C        -5.16281078778221   13.43176385574484   14.66250217388567
C        -7.35388406384625   14.51231070822913   14.36984954093323
C        -6.07752534546935   14.46968153112993   14.98338746756189
H        -3.50237636360654   11.14358623376538   16.61226789794097

