28
CSD_code = UFUMUG | q = 0 | S = 0 | Stoichiometry = C9H13Br2NS2Zn | MND = 5
Zn        5.17077889687533    4.23830218983707   15.58824990534075
Br        7.39013685613478    3.33001073355820   15.78153885722599
Br        2.81701142454397    4.49025905894051   15.99161159718639
S         5.76190772862434    6.46192414267098   17.17168305076208
S         4.78605847614836    3.08452070630475   13.08272366176943
N         5.55651793904697    5.89738808050568   14.11642315200345
C         5.43359527407564    7.16885693942700   14.49730087559368
C         5.72996896522425    8.21848780566145   13.63530235326478
H         5.62488508605807    9.23718084826527   13.97235667693452
C         6.14644156446379    7.93317067773183   12.34716617457550
H         6.37916274377249    8.72880228655557   11.65631567505107
C         6.25840966783855    6.61007673905350   11.96061195091030
H         6.58181693142209    6.34627851470393   10.96655910519303
C         5.96026882998548    5.60989150788801   12.87988681705056
C         4.94663621091155    7.45763979854480   15.87857904111215
H         3.88745356312052    7.20060725167481   15.96817358063994
H         5.08051860172616    8.51084340767024   16.12413224925299
C         6.11718464292129    4.17778740082020   12.48630954225537
H         7.02647569245419    3.76505982155278   12.93312549097974
H         6.17900816363755    4.08053038539485   11.40257373713561
C         7.49852698947427    6.88523269563752   16.86869401602382
H         8.07803037250133    6.34037969769890   17.60708949510365
H         7.79789406429039    6.57138772543651   15.87329863615633
H         7.63157867837607    7.95498396723734   17.00064166839219
C         3.33709108419304    3.90475091990419   12.36477766995389
H         2.47308041491347    3.32838770962083   12.67958861600643
H         3.24990254582225    4.91910649274089   12.74213910298436
H         3.42325859144169    3.89415249495643   11.28214730114198

