54
CSD_code = UFUQUK | q = 0 | S = 0 | Stoichiometry = C22H28ClNORu | MND = 9
Ru        1.65542941735052    7.38431618669726   10.71640470872350
Cl        0.66822849101010    5.25749030146990   10.67906508063870
O         3.45291738128946    6.35717416876912   10.62415759464009
N         1.65907236994498    7.11175989844553   12.72852250362279
C         2.13777094876503    6.12011477563262   14.89144650074114
H         2.43989687956195    7.00585840090583   15.44844178581617
H         2.67909274984398    5.26323757615815   15.27960263159669
H         1.07062804128880    5.97244263320702   15.04691203808240
C         2.42195611062148    6.30446769531407   13.42304083019790
C         3.51414734344103    5.61134936734790   12.87964025121369
H         4.06819348918912    4.97121905480493   13.54771571788576
C         3.96552197409278    5.68826595090431   11.56803071694418
C         5.22282653002571    4.91982517871159   11.21448212756556
H         5.00848780812160    3.85385859946040   11.24574373918529
H         6.01748280162938    5.13545618755771   11.92395947777334
H         5.54113213261015    5.18646894540919   10.21037320545531
C         0.59122034122486    7.80397247956912   13.32120344720304
C        -0.71795082398271    7.36745875516457   13.10662214448043
H        -0.87644413646290    6.47638595906381   12.51371827730658
C        -1.77673990626072    8.07040377189146   13.64430965872505
H        -2.78656689831393    7.72404671873801   13.47584030960072
C        -1.56763625793483    9.21735538485659   14.40570479703383
C        -0.26308710446771    9.64177766968269   14.61895003877977
H        -0.08028866596794   10.52843548182491   15.21009545739068
C         0.80859398251734    8.94462253436661   14.09115246120583
H         1.82081223620033    9.28262112307681   14.26523637837628
C        -2.73278183943814    9.97209816898500   14.97088727002637
H        -3.30091711094493   10.44712990160453   14.17073744463719
H        -2.40072827717886   10.74379098412958   15.66082231097019
H        -3.40496322362037    9.29688848741796   15.49752569929545
C         2.51734830604251    9.37989378248039    9.98464502125849
C         2.34460388717740    8.50536566044623    8.87311823185832
H         3.19123666504657    8.31114552568064    8.22214126820589
C         1.10339806341925    7.94086706555321    8.57390996297854
H         0.98439550573165    7.31459224963840    7.69694280735262
C        -0.02935874267613    8.21481455215355    9.39461789148744
C         0.11877573905471    9.11889130069935   10.46007595218223
H        -0.74766421464199    9.42349785655023   11.03670547414396
C         1.38748378909026    9.67379335714284   10.76370424809073
H         1.45717602772851   10.39309261496040   11.57186932369564
C         3.86079728461478   10.00923131072138   10.26707979824175
H         4.59866829675101    9.54213071107315    9.60504516795825
C         4.29109137306624    9.74649368104700   11.71221334877947
H         3.66578547849638   10.29767516299183   12.41087069947265
H         5.32317793785553   10.05560446410158   11.86077439095997
H         4.20843446339081    8.68203902438141   11.93525069117785
C         3.82302966848740   11.51033184322186    9.96569110057605
H         3.10710423364329   12.01534424402649   10.61058302666573
H         3.53641943740306   11.68566600184152    8.93068497427743
H         4.80412779193974   11.94908790167075   10.13125087009498
C        -1.35143467170082    7.58897722255211    9.07526702355319
H        -2.14972902999401    8.03924526681196    9.66083415390350
H        -1.30365111342783    6.52369551110725    9.31476419489888
H        -1.57972296063838    7.68783134799012    8.01491577308135

