42
CSD_code = UFUSUJ | q = 0 | S = 0 | Stoichiometry = C22H12CuIN4O2 | MND = 5
Cu       -0.00000647171825    3.82159083890837   11.56943407411487
I        -0.00000262120255    1.34060889390096   11.56953497361459
N        -0.40118945822000    4.64849053837124   13.22051323614528
N        -2.63398828214712    4.07082728581016   11.26675174758253
C         0.41235361139884    4.90102115537597   14.25360467379039
H         1.46776993907981    4.88242817464116   14.02396327821865
C        -0.04364672196443    5.16411211107592   15.53042048965319
H         0.66736829456430    5.36306371797937   16.31661388402157
C        -1.41505861395153    5.15839954255909   15.80689606958155
H        -1.79510584995234    5.34317092017445   16.79973390707276
C        -2.25744795704039    4.89180236492756   14.74968257811100
C        -1.70144760605239    4.65408077506612   13.48043568263265
C        -2.77089761890113    4.36171745048684   12.54567175943442
C        -3.99699731107840    4.39901286704931   13.24036038829956
C        -5.15270693245361    4.08678715117126   12.55167826860934
H        -6.11638051876674    4.09206124776073   13.03850059365160
C        -5.01152931574739    3.75204282412487   11.20645588970997
H        -5.87308961505208    3.48078107107357   10.61728874974048
C        -3.75260898791326    3.76317354185306   10.61950625102424
H        -3.62999342959684    3.50172458406748    9.57668794631874
C        -3.74592369750863    4.76930906632168   14.65863098205503
O        -4.55216829274801    4.94566337171901   15.53816111191843
N         0.40118419192436    4.64841972929884    9.91831652101188
C        -0.41235277052802    4.90094676504491    8.88521878262670
H        -1.46777065002609    4.88236147926445    9.11485511530773
C         0.04365826203038    5.16408280832626    7.60841609603914
H        -0.66735053592637    5.36303861472101    6.82221835521808
C         1.41507619081628    5.15845643607855    7.33196660511295
H         1.79513025347062    5.34319906185810    6.33912524757594
C         2.25745610197345    4.89183397934011    8.38917980138177
C         1.70144519760349    4.65404644067621    9.65841052296451
C         2.77089244949926    4.36170351718115   10.59318210639332
N         2.63397612937726    4.07077918382759   11.87209383127120
C         3.75259039431226    3.76309930447615   12.51933637017341
C         5.01151987109006    3.75202397924734   11.93240213908545
C         5.15269869178446    4.08675268717144   10.58717567357073
C         3.99699379149077    4.39900213053323    9.89849688654832
C         3.74593216886516    4.76935974609721    8.48024178832964
O         4.55218433636118    4.94577422278958    7.60073007203405
H         6.11638018939159    4.09209826480420   10.10037069765101
H         5.87307714618499    3.48075539889970   12.52157002281070
H         3.62997604727785    3.50169675594631   13.56216682959042

