58
CSD_code = UFUXOK | q = 0 | S = 0 | Stoichiometry = C22H31MoPSSi2 | MND = 11
Mo       -1.82045251582734    3.58380089640879    3.12815544001564
S         1.80893916868428    3.58380151353463    0.93766909120082
Si        1.24142785964803    1.83184629257854    2.08384435703661
P        -1.89793106249816    3.58380007746271    5.51445594254548
C        -2.76470427451442    2.22166996588730    6.39334575143447
H        -2.63485340626798    2.34189202917706    7.47028986911174
H        -2.40441681521315    1.24158407414434    6.09214032042366
H        -3.82266165736606    2.29629457942361    6.14261274051950
C        -0.31456054370186    3.58379981644551    6.43704824349966
C         0.33155767017710    2.38846307753341    6.74401551193863
H        -0.14179876555367    1.44613998254097    6.50947704900789
C        -0.60752090369049    1.80121386267712    2.35504574234346
C        -1.30656602346904    1.40109394676878    3.52026058862421
H        -0.84305598323794    0.86550255582704    4.34244589821525
C        -2.72117710906089    1.44245235700765    3.26022445069527
H        -3.49393704319431    1.00286561814390    3.87626854786843
C        -2.89217038735856    1.92875199122573    1.95958607961919
H        -3.83024813637015    2.00947312654143    1.43250548439722
C        -1.60498543817868    2.17200773910926    1.40546494463148
H        -1.40488244065517    2.35220816670508    0.35707790722815
C         2.16713942298618    1.76625400827381    3.74335273868898
H         1.71446362857612    2.41944876193357    4.48136338413745
H         3.20149498995748    2.06885888043767    3.61935876416770
H         2.16294204953817    0.75829496126567    4.14528542805979
C         1.76332968599403    0.38066797489792    0.96464512648962
H         1.53901667880744   -0.57546183817358    1.42699849345650
H         2.82976389240519    0.42074964269582    0.77013342851692
H         1.25462465087522    0.41900328487853    0.00685566560708
C         1.56998243759924    2.38756076887842    7.35884065831390
H         2.05125997412452    1.44924717995818    7.59446952207190
C         2.19505876712988    3.58380004034392    7.66874697815806
H         3.16304572556831    3.58380011012152    8.14701100600748
Si        1.24142351377914    5.33575560088034    2.08384286174787
C        -0.60752563925057    5.36639069127533    2.35504385645997
C        -1.30656893940266    5.76650905820422    3.52026047721268
H        -0.84305851095581    6.30210120643136    4.34244501349723
C        -2.72118055272602    5.72514761642695    3.26022775066275
H        -3.49393978400220    6.16473217692281    3.87627399956436
C        -2.89217606736765    5.23884840623342    1.95958963386224
H        -3.83025495691433    5.15812573146939    1.43251134954787
C        -1.60499180178134    4.99559569713889    1.40546524955811
H        -1.40489148943846    4.81539635721223    0.35707745479041
C         2.16713293647184    5.40134442248834    3.74335249271691
H         1.71445309013625    4.74815102677414    4.48136186513642
H         3.20148746301224    5.09873525273920    3.61936012904630
H         2.16293899621432    6.40930323156135    4.14528570189519
C         1.76333273535890    6.78693066762871    0.96464286386250
H         1.53902436994029    7.74306215285629    1.42699497059994
H         2.82976705033449    6.74684303233253    0.77013252595693
H         1.25462887001015    6.74859705486684    0.00685275629841
C        -2.76470360085113    4.94592954692569    6.39334725771889
H        -2.63485231789252    4.82570630568606    7.47029119572648
H        -2.40441592038989    5.92601560992686    6.09214273689563
H        -3.82266105842223    4.87130532963099    6.14261453310447
C         0.33155881572569    4.77913664719139    6.74401292369931
H        -0.14179678253136    5.72145959742317    6.50947217721575
C         1.56998354909280    4.78003923903559    7.35883812794659
H         2.05126193593636    5.71835289608341    7.59446494124450

