61
CSD_code = UGADUC | q = 0 | S = 0 | Stoichiometry = C26H22Cl2N6NiO4 | MND = 6
Ni        3.61482146837437    3.61482256016030    0.00000976628922
C         3.15875710290077    1.15913592014085    1.65572884299750
C         2.57726577436960    0.40644204971943    2.74163371211454
C         2.95913931922821   -0.89788785681158    3.00284302896511
H         2.49165206386632   -1.41494890868839    3.82812134768698
C         3.91455933928808   -1.52189095817544    2.21455822019151
C         4.50592365776483   -0.84645831385629    1.16944871613150
H         5.25125564594078   -1.34799910179481    0.56827341086222
C         4.16719356994625    0.47996842933379    0.87986520339989
C         1.56949358986668    1.04580606158538    3.57235957283993
H         1.28378000870080    2.05108601462798    3.20786191006934
C         4.87015190666122    1.13224706488826   -0.17425138937676
H         5.59166278827225    0.47799575015782   -0.67649406814479
C         5.73382325704499    2.75095344050331   -1.61419997880277
H         6.44198914308967    1.93672990137671   -1.82310211584903
H         6.29513607308004    3.62843126740788   -1.27405932629210
C         5.00696239543850    3.11391158085933   -2.91322842973475
H         5.71691321409187    3.12693631163096   -3.74261424278188
H         4.24813022153734    2.35604818095625   -3.12148329916998
C         4.35304864985023    4.44691965946153   -2.79378092924561
C         3.93780560034761    5.29285532539071   -3.78311741473299
H         3.96497235145848    5.19943582383680   -4.84828569570155
C         3.53084717057524    6.17326227023567   -1.82826078233224
H         3.21027166305082    6.88854530236293   -1.09717168774727
Cl        4.37851596202694   -3.15971361568713    2.55112692135954
N         4.81724172150574    2.35662594288515   -0.56610553130986
N         4.08746759251637    5.01139931963169   -1.57557207012200
N         3.41780107461013    6.38720968059318   -3.15326301345038
H         3.00784525117797    7.18926897301221   -3.60337983013629
O         2.80913080690091    2.34208549958348    1.43058187092208
O         1.06686674333305    0.57771030758987    4.56915029546018
C         1.15918880283084    3.15883263651236   -1.65577781383917
C         0.40645868748781    2.57725489885552   -2.74161539250321
C        -0.89788232649700    2.95910749396507   -3.00281855819411
H        -1.41489296273542    2.49168556345438   -3.82816552008964
C        -1.52189845104525    3.91450830874725   -2.21451896278663
C        -0.84646456187778    4.50588268757583   -1.16941601785167
H        -1.34797145088521    5.25127776719885   -0.56829549375531
C         0.47997565089398    4.16719125316401   -0.87985289913867
C         1.04580010853174    1.56945261234343   -3.57232001729364
H         2.05110730471245    1.28377531420397   -3.20786133180670
C         1.13222883470981    4.87012693642907    0.17429065051460
H         0.47800263418905    5.59170632260513    0.67646435533573
C         2.75093089554107    5.73384443647314    1.61420837594721
H         1.93669718443747    6.44199936899534    1.82310530591979
H         3.62839270144294    6.29517334888197    1.27406144005306
C         3.11393240900201    5.00699553904911    2.91322956934869
H         3.12696825569170    5.71697349628260    3.74259041897984
H         2.35607022875271    4.24817453221829    3.12152071352302
C         4.44693732672553    4.35307301150575    2.79377426747337
C         5.29287241542196    3.93782340083464    3.78310909899657
H         5.19944935570793    3.96498744592492    4.84827544162690
C         6.17325902832455    3.53083134703575    1.82825408990398
H         6.88852328455871    3.21022397102456    1.09716356515080
Cl       -3.15969576654294    4.37850655190664   -2.55113580723753
N         2.35661671404879    4.81724344577833    0.56612820004062
N         5.01140999813465    4.08748304005939    1.57556424935103
N         6.38721230111442    3.41779310644251    3.15325519423161
H         7.18926662915185    3.00783056270256    3.60337471544562
O         2.34211281532572    2.80915471310674   -1.43058019258150
O         0.57776682603290    1.06695300379901   -4.56920465912443

