77
CSD_code = UGAGAL | q = 1 | S = 0 | Stoichiometry = C38H32CoN4O2(1+) | MND = 6
Co        5.54625997658840   10.65833810269634   14.27325942113970
O         6.68234442735483   12.12033306301826   14.63072703610432
O         6.66097885627944   10.24190979878497   12.81154775493259
N         4.42509406828456   11.02584374565084   15.73802594668073
N         4.38726285261811    9.21790917796667   13.92799580317489
N         6.76710009427230    9.57776010639107   15.34215742619185
N         4.51121143202131   11.82758624437628   13.08833326424061
C         5.69150870988556   12.84305192469189   16.69545676021577
C         6.67233682536493   12.89727898345801   15.65547994624055
C         7.68441111123699   13.88390972137646   15.76808817153887
H         8.41877539041589   13.92838153253927   14.97899901606886
C         7.72953810746655   14.74281702297317   16.83165763655454
H         8.51617665149563   15.47999517666884   16.88905760365637
C         6.76844900698080   14.68094456334720   17.84987737099808
H         6.81911141767764   15.36622901286742   18.68043914523572
C         5.77177831161736   13.74886556561605   17.77568812510926
H         5.01973467925967   13.68952885998650   18.54940785752667
C         4.62750413578642   11.91164862066444   16.66027222394004
H         3.91437275061728   11.96609395370517   17.48384583689847
C         5.74281807758492    8.08621572841237   12.29100091434533
C         5.89051245328914    6.90353539600695   11.53590677126207
H         5.12700925030862    6.14340310110866   11.62085144846060
C         6.97308047908649    6.70986372891479   10.72377764340613
H         7.07941909115529    5.79831490458295   10.15823042221849
C         7.94643762100761    7.71280939395860   10.62487303178221
H         8.79854029109924    7.56286474885730    9.97910639330713
C         7.83140410375520    8.87810131030101   11.33249649443602
H         8.57210841123642    9.65841622475871   11.25263375369760
C         6.73276175604886    9.11386920336538   12.19649377801261
C         4.58273822060793    8.25675311866204   13.08516933950709
H         3.79381591532032    7.51668308839361   12.94915624998081
C         3.27630989532525   10.13982909331076   15.88658265667104
H         3.49783065929755    9.41273408857218   16.68177445004301
C         3.08400346802806    9.36795943085596   14.55912324420225
H         2.47624914684324   10.00221589914179   13.89530440773591
C         1.99138234303697   10.84637048124322   16.25313653712494
C         1.58476020224724   11.98301936303415   15.56478102710937
H         2.21080594174517   12.38920734247026   14.78220698644403
C         0.38768056448085   12.59980944203663   15.88025665089058
H         0.08346881641041   13.48506805901296   15.34274325362323
C        -0.42000175117936   12.08055145988569   16.87845529463337
H        -1.35472283971938   12.56102627681877   17.12181963119973
C        -0.02486357018208   10.94314828997027   17.56111770647749
H        -0.65071251835496   10.53193846684505   18.33783877703278
C         1.17656710169467   10.32951143485553   17.25144514786708
H         1.47945629678133    9.44021089085612   17.78540440458105
C         2.31421853431639    8.09619814983047   14.83368668722969
C         2.93126376894879    6.96523770583368   15.35634287285790
H         4.00160240664792    6.95177152142380   15.50915294497539
C         2.18670786170809    5.83991368707735   15.66293680774345
H         2.67892406950706    4.96558690171491   16.06077108725750
C         0.81654292848613    5.83648724654042   15.46388371913670
H         0.23713793336786    4.95965156577942   15.70706897337018
C         0.19442058119396    6.96148197474697   14.95030826131501
H        -0.87285379562064    6.96669178021130   14.79259082835552
C         0.93934072714505    8.08418447022430   14.63494969424212
H         0.44920476435639    8.96102622722942   14.23704420843841
C         6.41027193083227    8.63581068651442   16.21593209742882
H         5.35378316227178    8.47780786176909   16.36536389274867
C         7.32188349695950    7.87018485143494   16.91893587755862
H         6.97070159650801    7.12228128045364   17.61187674448788
C         8.67653857973364    8.08219275719680   16.71689013102644
H         9.41430822380414    7.50189364219764   17.24850071289402
C         9.05062283836752    9.06143716635364   15.81239394799851
H        10.08946930800525    9.27096707249724   15.61528132418043
C         8.07266384954094    9.78210082137662   15.14973521000037
H         8.33825867554348   10.55002618130047   14.43819814923306
C         4.21362597713153   11.44664973467240   11.84418572874773
H         4.42094605193130   10.42171809838989   11.57452407494893
C         3.66344415862620   12.29940166914542   10.90373038018727
H         3.44959937026778   11.93163749063684    9.91310633593209
C         3.40521523401230   13.61505015760478   11.25254396596854
H         2.98583238131656   14.30808221748145   10.54016000191003
C         3.70439112731803   14.01178362086167   12.54524581426007
H         3.52346318021177   15.02160823023198   12.87707167268860
C         4.25199634182151   13.09322294692918   13.42430985225560
H         4.49176650355712   13.40155713932995   14.43117523812156

