44
CSD_code = UGAJET | q = 0 | S = 0 | Stoichiometry = C15H24N2NiO2 | MND = 4
Ni        8.30540270177522    6.90958750926066    6.82025612510964
O         9.01385584907796    8.21140360485407    5.69520950985352
O         7.34528161992809    8.27893699969149    7.63521588671925
N         8.88518813856355    5.50527753042568    5.65409599260460
N         7.97099635841380    5.72429628840617    8.28783788537342
C        10.42625312250999    9.32919732631410    4.16099547234222
H        10.00787733151249   10.19190980507215    4.67169399439602
H        10.19413864759215    9.38839944064773    3.10007057123983
H        11.50791079882647    9.32989239313486    4.27660368537664
C         9.84346315486464    8.06311090003796    4.75365843105377
C        10.22784498044548    6.84558371376099    4.21037134542522
H        10.92646399511522    6.85342244760169    3.38977078956752
C         9.68057473052202    5.61784535829470    4.61423639527179
C        10.02663427392727    4.43593348792481    3.73640719602517
H        10.33768730377498    3.57383990009528    4.32011254133105
H        10.83597294713875    4.70511067683716    3.06431283798837
H         9.16622256807536    4.15588298754534    3.12867595126108
C         5.72250373018219    9.43744461864841    8.90910556465970
H         5.97704969481488   10.21999248590287    8.19987386398161
H         5.92842894046324    9.78368607388685    9.91943431235883
H         4.66122570901349    9.21114918550775    8.83316145586955
C         6.53951236597573    8.19886635943569    8.60527507150901
C         6.37579683568527    7.08745914525568    9.41970883822823
H         5.67189346726960    7.15330344385921   10.23316082277856
C         7.14774432107589    5.92220475388318    9.29274831383942
C         7.00726970280673    4.92717114408037   10.42303356585120
H         6.86075890902093    3.91499426589652   10.05577393926008
H         6.15538827212260    5.19446901081225   11.04103205290720
H         7.89653517783279    4.94623196811832   11.05290864461078
C         8.17976323352213    4.25689354336922    5.91121309395923
H         8.27811556860420    3.55543302319576    5.07936707384542
H         7.11406728089885    4.50089698735113    6.00848389747966
C         8.89912064959722    4.60158552353735    8.30535990269564
H         8.91225795324797    4.09993679449279    9.27580063410941
H         9.90382039223821    5.00911805798590    8.13451750527000
C         8.62322833814654    3.54873433356451    7.20981704903206
C         9.90922090156100    2.75012226070290    6.98563673366927
H         9.74599676379331    1.95434414958091    6.26148560557054
H        10.23802794125147    2.29596561634673    7.91840066296911
H        10.70453911230678    3.39923264956399    6.62656700011449
C         7.50421750954150    2.59604387764310    7.63638725855286
H         7.28677837239095    1.88882113608345    6.83825962021706
H         6.59391552255700    3.14934757241663    7.85554868182281
H         7.79705481201577    2.03032164897092    8.51871422389886

