91
CSD_code = UGALOF | q = 0 | S = 0 | Stoichiometry = C38H47NRuS4 | MND = 5
Ru        3.09824728398430    7.35875209470595   15.81588452179349
S         3.71110965151278    8.27547902769935   17.81641158556899
S         1.07161335623324    6.33464873367921   15.84968190989740
S         4.04344785065149    7.16339227464429   13.77037079867574
S         4.28027315821426    5.38672198546518   16.51031589882414
N         2.17004461355084    9.03848432121601   15.23875533055759
C         1.82581407265425   10.09439264398055   14.94169979933885
C         1.39798563664148   11.40418506282008   14.56061979582587
H         0.31455207380889   11.47604284155445   14.64907099238746
H         1.69447478385499   11.59015736690527   13.52790087305748
H         1.86453613119653   12.13763886561897   15.21864899810931
C         3.22049527171661    9.96844643983962   17.86329788285416
C         1.88341223178682   10.32555155985266   18.07683479970845
C         1.54945331102146   11.67079874736379   18.09109611858277
H         0.51706909523721   11.95184763894650   18.24777379689840
C         2.50513997908994   12.66300812053578   17.92029166359273
C         3.83084794499245   12.28475913714118   17.75465922739761
H         4.58963502628911   13.04737552277943   17.64653197624347
C         4.20892920693964   10.95213108336603   17.73403538821571
C         0.83603184558703    9.28210316643128   18.29413356345409
H        -0.14830988754604    9.73328063738833   18.38948490010996
H         1.05426570482663    8.72166680615660   19.20297945870376
H         0.81897333980071    8.57188170276564   17.46222735495697
C         2.11923926098272   14.11128609482619   17.95229932820506
H         1.10929179474488   14.25508804768175   17.57418852920924
H         2.80869164315670   14.71195645689182   17.36328844838728
H         2.14698520744949   14.47915500924342   18.97805763385050
C         5.64824605134638   10.57180184863856   17.58426980608476
H         6.28346854500777   11.45371001003416   17.57235076595746
H         5.80505075747903   10.01592054835960   16.66014036961779
H         5.95382075534538    9.92128913213342   18.40304240537757
C         1.26853516489490    4.69824608855237   16.46081864864243
C         1.60126900284293    3.65499244121231   15.59168076920175
C         1.69284466232157    2.37302544627248   16.10745312490554
H         1.96109475362405    1.56194120892396   15.44535953542107
C         1.46151081148210    2.10879592557345   17.44970549927412
C         1.13479486008042    3.16439993340749   18.29126257929765
H         0.96653089198000    2.97244139426082   19.34176868755240
C         1.03378268800251    4.46092595255244   17.81963833217950
C         1.88230247040337    3.92937145295243   14.15051206733122
H         2.18820574080639    3.02285012955182   13.63544357697177
H         2.68730297863128    4.66563338224074   14.07176089271154
H         0.99877591152800    4.33634166743711   13.65825902596389
C         1.59780553130635    0.72093047672239   17.99608346207841
H         1.50817962038315   -0.02027126781315   17.20573978182802
H         0.84071805873561    0.52652022795357   18.75303851008132
H         2.57617529450338    0.60285719977210   18.46324669787934
C         0.73426870767955    5.60088592434836   18.74023938245204
H        -0.18205789853139    6.10853509751223   18.43847812992451
H         1.54867005168381    6.32973203329618   18.69122426832589
H         0.62764064417476    5.25727899144344   19.76619634295072
C         3.42324176268109    8.45915974950668   12.74265152464509
C         2.26013669693967    8.25715542067282   11.99196818495008
C         1.82676919468921    9.26966418172998   11.15090215202470
H         0.92844796059001    9.11836654943487   10.56907385477242
C         2.51770404110787   10.46795295290960   11.03441407461335
C         3.66066695074436   10.65152402706686   11.80158952806021
H         4.20410599783807   11.58405348719672   11.73167758614879
C         4.12598733827880    9.66540525357274   12.65636612731817
C         1.48819444955355    6.98627123796061   12.12617878909363
H         2.10933454282841    6.13281396445199   11.85657749687464
H         0.60484294661619    6.99633417687177   11.49307706285878
H         1.17726241672502    6.85649362576808   13.16719933389542
C         2.04343726710064   11.53423546348374   10.09378884035210
H         0.95657191130184   11.55644946210802   10.04736027398079
H         2.41589983002442   11.33315815103485    9.08907555405350
H         2.40692708695752   12.51400971355785   10.39604865610905
C         5.32485550823986    9.90063182402558   13.51864086155345
H         5.02728221584193    9.84191720306044   14.57001869070793
H         5.75861299107251   10.87967606866126   13.33230051247660
H         6.08043051666214    9.13548177957679   13.34343910293885
C         5.54301274907069    5.78444991577164   17.67725579001442
C         5.47300390174887    5.20830920880740   18.95020816461902
C         6.47790360261622    5.48012685266115   19.86276119410376
H         6.42228689721422    5.04166875017775   20.84995648816328
C         7.55175465875328    6.30083332631945   19.54586146782552
C         7.61162193473356    6.84291136402443   18.27197622519392
H         8.44601376731301    7.47577015831048   18.00030700902770
C         6.63000189321196    6.58882593869289   17.32724106822534
C         4.32524532647589    4.32522248983570   19.32457223568987
H         3.40175036767329    4.90131023049786   19.32485369780825
H         4.47281779968688    3.89309592344086   20.31136076243323
H         4.20566742687475    3.52649758299854   18.59414547012675
C         8.62003154296598    6.57628985488439   20.56151266623252
H         8.18206192741490    6.96629336564962   21.47958658442814
H         9.33969115524404    7.29866258742183   20.18384098484090
H         9.15087922533827    5.65752428979254   20.81064535977321
C         6.72149584462837    7.18788860514941   15.96116174358395
H         5.85335267790566    7.83682799396006   15.78965281566857
H         6.69708484984096    6.40765961861235   15.19933969503803
H         7.62952518140919    7.77529101549904   15.84665913334442

