125
CSD_code = UGAMOG | q = 1 | S = 0 | Stoichiometry = C67H50CuN4OP2(1+) | MND = 4
Cu        7.65162616005550    9.40338457566595   11.98599647977987
P         7.52888681963992   11.39357710430539   13.20686408391347
P         8.02519024132393    7.60281834143350   13.28087033888986
N         8.20485824555150    9.75431638418161   10.11369144113476
N         7.74177700154892   10.86714602361262    8.24616042475989
N         5.77880473931712    9.53633042648086   11.02940339498649
N         5.19507360553549   16.60376456131605    9.47119738255395
O         6.57835429967481    9.42657042057368   14.71208522293556
C         8.48569390757373   12.85230563777149   12.67831955715110
C         8.14087140049702   14.14350339315370   13.06944215754023
H         7.30447821829805   14.29489662729817   13.73768403890234
C         8.86546146136775   15.22332762849935   12.60020813563937
H         8.59116158970568   16.22381567414337   12.90104275950001
C         9.93359293929414   15.02348538881808   11.73767810639074
H        10.49108557836520   15.87034428246296   11.36674954282088
C        10.28574311510409   13.74022575124524   11.35218489576817
H        11.11868072833153   13.58246243440239   10.68247359893407
C         9.56390170404007   12.65717140887988   11.82294679666108
H         9.82829807354472   11.65085583147266   11.52537966094684
C         5.84439481606150   12.07728206851868   13.07645507054133
C         5.48130561907475   12.56684862322894   11.82303794398242
H         6.21803075342614   12.58795129918071   11.02897490661557
C         4.20285352585963   13.03645660011593   11.59585715852720
H         3.93701531319673   13.42082928688162   10.62158366459559
C         3.27160066867434   13.02301739224741   12.62224480447552
H         2.27354129856639   13.39560872138328   12.45032980868210
C         3.62720352718079   12.54094012979523   13.87063982353272
H         2.90441207810243   12.54061821365698   14.67306946782115
C         4.90632894504312   12.06383465869880   14.10058523311563
H         5.17720436203062   11.69895005439801   15.08057236109073
C         7.82716534212641   11.33731683823356   14.99935178592873
C         8.61985346863391   12.18861225765606   15.75089880795747
H         9.07832870645263   13.05004265480704   15.28836861161010
C         8.82389313909485   11.92260859836084   17.09548998932591
H         9.43229462620113   12.58942591184560   17.68624636540940
C         8.26203826181301   10.80121284134559   17.68047994957938
H         8.43367758381031   10.59545235868325   18.72561528134385
C         7.48582973146491    9.92438973072709   16.93743785551986
H         7.07291432274210    9.03510403191274   17.38950297179689
C         7.27222115328645   10.19979674205200   15.60031530559633
C         6.64481508473126    7.11062032088103   14.36810812873335
C         6.07590671862259    8.18916822153986   15.05299608554436
C         5.02476916530219    8.00300583959303   15.93247595078246
H         4.59069968060375    8.84698627684348   16.44791819597484
C         4.53832095556520    6.71898536330929   16.12993852491380
H         3.72297002445667    6.56030885434394   16.81859462124632
C         5.08610624747861    5.64602086531241   15.44648349947279
H         4.69577909479206    4.65282686354951   15.60663873218831
C         6.13463800289803    5.83540583838351   14.56002744696455
H         6.56128302111753    4.99718189725597   14.02858527948525
C         9.26921064467742    8.01746452845342   14.54384043407993
C         9.37960935229352    7.30941666621984   15.73744336174494
H         8.74353577852223    6.45304470092711   15.91743891681971
C        10.30080992417631    7.70714910473623   16.68884686326767
H        10.38670551322110    7.15767981220022   17.61431242425531
C        11.10907016082083    8.80973657782854   16.45995777940152
H        11.82071876901649    9.11946101538750   17.20986675033109
C        11.00477973177365    9.51423704620881   15.27204605925662
H        11.63350612014636   10.37355591171495   15.09389683706229
C        10.08686893205976    9.11907311867462   14.31657967780120
H         9.98411699982588    9.66661848427239   13.38570566251800
C         8.56081255492874    6.00637988742329   12.59898843803964
C         7.75720108926925    5.47732863312515   11.58981410284258
H         6.87059564742411    6.02119460876978   11.28549315434699
C         8.09127604454940    4.27680495565235   10.99412226773587
H         7.46269049818560    3.86246524196345   10.21987575257525
C         9.24051217508517    3.60800585381922   11.38840197035763
H         9.50459176863292    2.67085986021809   10.92254552856548
C        10.05467551016464    4.14479882620602   12.37195093268223
H        10.95403101749666    3.62672842491682   12.66980453991672
C         9.72222527281649    5.34469714565072   12.97749490140186
H        10.36167555464204    5.76354940268738   13.74158323192058
C         7.23938317722763   10.27178418431595    9.36951212440386
C         9.38333464506322    9.99913086346478    9.48197703195983
C        10.68781503175759    9.66237387782486    9.83672842686322
H        10.88009884946968    9.09827765502400   10.73621560086756
C        11.69507924266100   10.07214459528944    8.99365643690977
H        12.72017829631311    9.83310174471891    9.23007852102708
C        11.42208265471397   10.79563817295464    7.82684436463529
H        12.24413519514340   11.09794974395262    7.19685152850989
C        10.13633849991128   11.12909933844282    7.45743858678678
H         9.95181674884637   11.68555223744168    6.55156562376066
C         9.10905938787779   10.71849207042039    8.29849250206953
C         5.86518922206237   10.12319490280303    9.82446705006940
C         4.71202030631365   10.51004584215377    9.14249716204840
H         4.75702645366390   10.97381596735693    8.17497550365173
C         3.47880739383350   10.29827322277372    9.73520708930067
H         2.57748387007275   10.59727343665480    9.22233484730049
C         3.41271237786125    9.70118989218978   10.98445080987897
H         2.46903422116151    9.52592199483420   11.47377547891875
C         4.60350715318359    9.33127542069045   11.58810141573835
H         4.62129719210677    8.85231353161932   12.55824968085694
C         7.06747287599284   11.68969936009574    7.27183701476295
H         6.26220158995030   11.12642228089921    6.79112062427889
H         7.79965171334561   11.92847274282302    6.49397506316681
C         6.55257633279883   12.97608857449501    7.87774080545819
C         7.29541168278590   13.64447945050219    8.84452080564716
H         8.24158546324567   13.24173886958705    9.17970359907603
C         6.85259090862320   14.83981533712773    9.37548920940607
H         7.45486036807783   15.35919113414880   10.10459072968950
C         5.64559810379660   15.39337088591047    8.95070270223726
C         4.89648099489453   14.72047740787212    7.98509302375316
H         3.95126987018790   15.13013436783656    7.66390158058445
C         5.35075430881947   13.52956119483835    7.45449042632953
H         4.76382813303584   13.02999635642299    6.69647622060403
C         5.14271448372060   16.94869561101335   10.81207518471059
C         5.47075577531829   16.19986615107972   11.93118483182860
H         5.85119873150514   15.19457645654234   11.84288275669772
C         5.27682996275918   16.77518357824819   13.17341692264838
H         5.52114457474207   16.20855311870143   14.06044254960068
C         4.76686872664371   18.06326693167757   13.30720588679028
H         4.63352037084410   18.47931055316790   14.29426487762486
C         4.41992499123704   18.80646377851781   12.19597149590517
H         4.00948514635565   19.79897302401051   12.29837936877211
C         4.60146684585678   18.24740472731131   10.93848405855430
C         4.32979786316546   18.71192838413647    9.60559401941897
C         3.82780099408688   19.90271499596881    9.09784294183953
H         3.53788220141203   20.70122116835506    9.76314161973480
C         3.71765994131135   20.04251753642331    7.72871941950740
H         3.32809929092872   20.95867966954844    7.31223370158664
C         4.11811129598548   19.02118282437791    6.87133235466386
H         4.03997328809926   19.16582566530865    5.80434191957288
C         4.61993210322226   17.82701122904251    7.35487798436973
H         4.94907202841937   17.05364253926105    6.67717420815461
C         4.70472499278669   17.66982434229967    8.72996106894160

