55
CSD_code = UGAMUL | q = 0 | S = 0 | Stoichiometry = C24H18CdN4O6S2 | MND = 6
Cd       10.12746343125357    5.11635087945414   12.35627049960132
S        12.39213215271625    5.73802533620611   10.94020303449818
N        11.92561609052069    5.88816809401842   13.77030405769903
C        11.91297591679266    5.30922075655200   14.89578945754870
H        12.65200491881714    5.50573103941784   15.68362470150086
N        10.41345812026340    3.63529443832449   14.11670998717711
O        12.32594250282327    4.43397774356480   11.60494942420167
O        11.05180576145343    6.35424308470689   10.86524983481134
O        13.08523000439953    5.72199910324385    9.67660136399430
C        13.26300398091720    6.84293164672110   12.05961949349895
C        12.86336974860164    6.82887362815914   13.39655935014019
C        13.41040249354393    7.77358387504832   14.27109804697974
H        13.06676610608009    7.81682818519605   15.29423558339028
C        14.34630016514425    8.68228158362178   13.81033913888950
H        14.75687076777271    9.41397507020078   14.49078474719942
C        14.75978020385621    8.66133702667208   12.48706840817314
H        15.49729615982418    9.36828430819659   12.13885436286632
C        14.20333717867514    7.74161714614035   11.60868243670582
H        14.47972886662021    7.70402594695086   10.56671128125678
C        10.90262462810545    4.29151956522660   15.17281279167257
C        10.49682280412351    4.01471398752336   16.47737637614492
H        10.90935053642297    4.57203815765067   17.30478546254054
C         9.52776646772192    3.04794190265849   16.68107672494575
H         9.16417013585255    2.83611733912966   17.67558778342056
C         9.04336142126763    2.35344435010282   15.58501265826901
H         8.29978951852570    1.58133434450627   15.70153770506862
C         9.52086773551456    2.68151258919197   14.32275676406372
H         9.16980183363166    2.16079916599657   13.44193677752795
S         7.86283639052688    5.73816364415818   13.77234334680352
N         8.32937945962601    5.88821851017854   10.94218822943279
C         8.34204654025206    5.30929035651756    9.81669466964992
H         7.60296014199670    5.50570991956097    9.02889242893417
N         9.84146487378208    3.63528348735283   10.59581509645357
O         7.92900497767432    4.43407631196684   13.10766746536203
O         9.20317405966584    6.35435544554927   13.84726142794634
O         7.16972950169400    5.72221457502920   15.03594063247915
C         6.99198279333854    6.84302379489418   12.65286750886864
C         7.39159546890131    6.82889941300388   11.31591830532364
C         6.84453637650534    7.77356759922271   10.44134738364657
H         7.18814846863848    7.81677320566416    9.41820019317393
C         5.90863663065438    8.68227341366260   10.90207373597183
H         5.49805640229875    9.41393691897298   10.22160101022718
C         5.49517261498275    8.66138897440895   12.22535054888778
H         4.75767330824106    9.36836373350911   12.57354510877532
C         6.05164713580998    7.74172478840604   13.10377488125070
H         5.77527641760595    7.70418341316354   14.14575396568333
C         9.35235569099543    4.29153130561056    9.53969357153705
C         9.75828413125090    4.01482589378908    8.23514678432338
H         9.34586549559867    4.57224698020386    7.40775209165645
C        10.72740412211759    3.04811002681131    8.03148271935095
H        11.09109673654108    2.83638122793675    7.03699957307558
C        11.21176593157059    2.35357837562218    9.12754803202497
H        11.95528052519312    1.58141837862269    9.01101763739095
C        10.73413601810664    2.68156594794752   10.38978904523572
H        11.08505013524301    2.16072406381018   11.27059635282041

