64
CSD_code = UGANEX | q = 0 | S = 0 | Stoichiometry = C28H28Cl3NOP2Ru | MND = 6
Ru        5.90908676305381    0.50737017002229   15.76460932155354
P         5.89412357191333    1.57152583790020   17.86970755016919
P         5.89640778762457    2.22333472163263   14.10729837929595
Cl        6.54060347746676   -1.28658794588581   17.19621032653593
Cl        8.11288724463333    1.27920590953301   15.85867982513862
Cl        6.41627004694103   -0.81391587316065   13.84658615988178
N         4.27727418328884    0.16951864135828   15.77581760410295
C         7.20081153227008    1.25288318420228   19.08421792090940
C         6.26885243208268    3.95154538662701   14.64305002098955
H         7.22773583217345    3.87934182686502   15.16492564652952
H         6.44448080604814    4.53226929691786   13.73124565788444
C         4.37135410455415    1.24974065007522   18.81712279793174
O         3.12416779129852    0.05131519510047   15.84278789949373
C         3.81798389971641   -0.02951104363820   18.78500149868194
H         4.29749532113112   -0.80629501033448   18.20194203821723
C         9.19269484988826    0.71616010153973   20.93973274414923
H         9.97124925497221    0.50302735452287   21.65722137178246
C         4.33323321954478    2.33051416699527   13.17780015935158
C         7.10232172791675    2.03774238944098   12.75540581690467
C         1.96942160037440    2.37718035792291   11.71130227168734
H         1.04749198432635    2.40002719702464   11.14980886496069
C         8.92346887465214    1.70749527878218   10.68119154442511
H         9.63436298468459    1.57030087125577    9.87982461525415
C         2.67650244276095   -0.31645508028676   19.51110773290747
H         2.25701832035602   -1.31048065508575   19.47589774242803
C         3.60801526002397    1.15927976120807   12.96782515918423
H         3.99075006196159    0.21884750476354   13.34635614156357
C         8.40578659552277    2.50924759248233   12.88471199971056
H         8.73369419938190    2.97666004051944   13.80041552805626
C         2.07528242825193    0.66714703311200   20.27838248657676
H         1.18182182445924    0.44517521265216   20.84251545665862
C         5.92198534288916    3.39281594686421   17.63462534858382
H         5.89462065077267    3.89669409443485   18.60316303183160
H         6.88874348876889    3.61693825128549   17.17941724341787
C         6.71915021508107    1.39995634763884   11.57794064885696
H         5.71714242759170    1.01158850768027   11.47445500254847
C         3.76987981374474    2.22871470245133   19.60254565701089
H         4.18817358997216    3.22166521899075   19.66025754340765
C         9.30828375127416    2.34152985115349   11.84981519701264
H        10.32086005167373    2.69961232623421   11.96450369179046
C         7.62706208500418    1.23860556730386   10.54872146630881
H         7.32252174978937    0.73375459510031    9.64399187504425
C         7.00955316172477    0.26860154331266   20.05085489233784
H         6.09131802055741   -0.29960453300030   20.06590218644491
C         2.62716860884268    1.93628604397827   20.32509277183203
H         2.16689480703095    2.70453927603026   20.92919620045614
C         2.43211804176141    1.18378164985752   12.24060973541525
H         1.87947235836909    0.26958267779144   12.08538727957379
C         3.88174000052013    3.51851247477521   12.61089008667288
H         4.45241887994316    4.42865530464024   12.71439426052568
C         2.70174940673897    3.53904592507595   11.88876741682510
H         2.35592586656170    4.46732456980027   11.45780467093851
C         8.00417590924182    0.00518445270065   20.97348304761589
H         7.85397762679711   -0.76462606294280   21.71570890954052
C         8.39733565355269    1.96362983770196   19.04915009140684
H         8.57279542533027    2.70388140927544   18.28357674402979
C         9.38622257951849    1.69269998647346   19.97721703323970
H        10.31619536246883    2.24079132567007   19.94085567385547
C         4.77357765968728    3.81339426427863   16.71176573593073
H         4.27123636942297    2.91819253687591   16.31284125110242
H         4.02437604303977    4.37418882654351   17.27265295811821
C         5.23439833030708    4.65324722749438   15.52281243975287
H         5.67036462197370    5.58982036537688   15.88290093176027
H         4.35321167677749    4.90438541507878   14.92999669388952

