52
CSD_code = UGAQEA | q = 0 | S = 0 | Stoichiometry = C25H15F8IrN2O | MND = 8
Ir        1.43685462097448    3.21818909217874    3.32341455462663
F        -0.69784089482180    0.66017997503304    3.29409112387801
F        -2.46903000276793   -0.18875541538881    1.53334969952168
F        -0.99331766904202    3.07128644059370   -1.54891298928466
F         0.79345203477215    3.93567871145956    0.22350489642709
F         2.92760243654016    5.89308400638412    2.29329538906651
F         2.02910628578768    8.34331161120793    1.64698108224013
F        -2.40698050294796    6.91161536860530    2.41585867186797
F        -1.50237851548380    4.46920094760930    3.07147943543948
N        -3.50844454822564    0.57319808301815   -1.76659687097611
N        -1.07012773696541   10.02903327240136    1.41795074674855
O         3.55636443154069    2.99931328694000    1.20369722769920
C         1.63960897927045    1.74737105878528    5.07591638267733
C         2.81638917897630    2.55707444717905    5.00655367782940
C         2.43182931026985    3.92235894998191    5.17342551527085
C         1.01148040828107    3.94555295538575    5.42021543076952
C         0.52540752934986    2.61463363524654    5.34821353066005
C         1.65960966981591    0.25805302856259    5.19684351042470
H         2.35075817382447   -0.18751793750361    4.48420310803597
H         0.67647159392933   -0.17043243978397    5.03348761579578
H         1.99044670059744   -0.01392168287158    6.20122482975054
C         4.22093750212584    2.04882757765999    4.96768790273098
H         4.55999451506922    1.85559816687776    5.98726982370981
H         4.89381331587616    2.77741289030524    4.52143014402890
H         4.29345281489647    1.11881649782245    4.40841375932319
C         3.37327530056826    5.06297268215244    5.39413723234069
H         2.87816820980735    6.01935168975211    5.24502261971946
H         4.22250572457213    5.01243013547293    4.71637692468042
H         3.75137619284411    5.03276725835220    6.41760671161901
C         0.23295377756552    5.11372686311951    5.93399593065403
H        -0.81629148377752    5.04119631685379    5.65711808113409
H         0.62820719211802    6.05796771192158    5.56390679546027
H         0.29103733410895    5.12808261321007    7.02434349917676
C        -0.84659359295874    2.21132654323084    5.78613967390893
H        -0.97053626954631    2.45309721566669    6.84311128891946
H        -1.00826218464639    1.14655759368963    5.65544702626163
H        -1.61391284744319    2.74496859325552    5.22776785949058
C         2.72490438666584    3.10343743674633    1.97536392749609
C         0.10606204925203    2.38018227301723    1.87704303461683
C        -0.75470730695770    1.31054223773959    2.12047747280958
C        -1.68468215157823    0.84103236724866    1.20104763119010
C        -1.80320983518878    1.42539125189484   -0.05891728272348
C        -2.74850191735245    0.95721271933881   -1.00242896932231
C        -0.93913343861579    2.48298900864969   -0.35183154359203
C        -0.02395701579559    2.92187720412897    0.59162209216162
C         0.74431801783680    5.08965020566012    2.68504009678655
C         1.60123088527331    6.12326711099613    2.31491165644075
C         1.15249705627119    7.39286349668133    1.97873532943750
C        -0.21270149435859    7.68815522782814    1.99953376382962
C        -0.68772449900285    8.98100852069054    1.67053789043257
C        -1.09409345495286    6.67031291372377    2.36931098930421
C        -0.61008826633712    5.41327028127594    2.70108206949877

