79
CSD_code = UGASIF | q = 0 | S = 0 | Stoichiometry = C34H32N4NiO8 | MND = 6
Ni       -0.00008878554379    4.66981992636998   11.39701922501877
O         0.95202284005460    3.19808784738838   10.73575804212879
O         1.30631869067034    5.02883200265480   12.67959863049867
O         1.01302794773292    5.79023078626354   10.24716918977335
N         3.01423544152154    2.49455985901449    9.93587108940771
C         2.21607149612251    3.20732903205304   10.77622031407823
C         3.09561476499510    3.88523096041109   11.68210999855098
N         4.32869107835119    2.70473395499691   10.22028193595992
C         2.53608644917156    4.72263536970677   12.66335470102278
C         3.29289726453794    5.27824974037822   13.77976733452504
C         4.40775125270477    3.51191119049837   11.23844132323711
O         4.51154692303697    4.82350479177813   14.14163684513604
C         2.64952194591306    1.67115961304006    8.86539832222724
C         5.74090348716398    3.94311432149305   11.72817213260424
H         6.49163367181869    3.62604390842410   11.00953572111225
H         5.95929660873030    3.48946063838994   12.69251136346013
H         5.77455439357612    5.02414207248359   11.84076440546118
C         2.89238593478923    6.27121346597191   14.64703369305215
H         1.96816509740209    6.80809338086939   14.59555901986409
C         3.64593859184502    1.21925764987419    8.00397615681749
H         4.66658191948096    1.50821396304012    8.19496284156920
C         1.32402764733893    1.30656907123289    8.65086206188888
H         0.55874113223395    1.64831190589122    9.32872113684715
C         0.67569524591652    6.11609570651932    8.95233830708720
H         1.31347848676879    6.98138633339444    8.69481373545657
H        -0.37273189074301    6.46006375361824    8.87186320682582
C         1.00594845589046    0.50778537057983    7.56738376667438
H        -0.02327238003472    0.22540899032848    7.39983045438147
C         4.89120150666238    5.51831825820434   15.21759835242480
H         5.84793231120770    5.28264919039278   15.64159937173736
C         1.99305057013403    0.06095137694705    6.70501765883648
H         1.73556332602947   -0.56454758846389    5.86337727459744
C         3.31293991236507    0.41669454587653    6.93018321873052
H         4.08818339930254    0.06873506551839    6.26374017941930
C         3.93798019026384    6.42847793479308   15.57526288822419
H         3.97907459986158    7.11614385229451   16.39446334740641
C         0.92002538288090    4.99503469566042    7.93496580113608
H         0.31481796145526    4.13047862520562    8.19458658642650
H         1.96770824083022    4.70203261993938    7.94709933845337
H         0.65617055998620    5.33149197519714    6.93477389919573
O        -0.95218904469538    6.14158967696889   12.05822306376568
O        -1.30648613336908    4.31086179471940   10.11453258355016
O        -1.01309902585709    3.54945978080650   12.54702960403650
N        -3.01432103604423    6.84545423473833   12.85798228868119
C        -2.21623094697721    6.13243479059877   12.01778734389615
C        -3.09582468301581    5.45442808529354   11.11201960064547
N        -4.32879852421943    6.63534589681774   12.57361129961084
C        -2.53629523445781    4.61695433412557   10.13084524832669
C        -3.29312385316877    4.06111979355738    9.01455638961446
C        -4.40793073156935    5.82795621127816   11.55562333548770
O        -4.51182871807602    4.51572549139663    8.65268682659050
C        -2.64944170053017    7.66898489813494   13.92829926844009
C        -5.74113565522790    5.39683632919031   11.06595245870683
H        -6.49183598856770    5.71415909461757   11.78451045980942
H        -5.95944426674968    5.85033843431284   10.10152066312227
H        -5.77495118127001    4.31579231187346   10.95356120985704
C        -2.89256140310383    3.06809712936493    8.14738560349364
H        -1.96829905975808    2.53129482036303    8.19892887147387
C        -3.64572788806919    8.12119359709480   14.78970930124823
H        -4.66643396179808    7.83238678143959   14.59882520093069
C        -1.32387174268517    8.03337984788717   14.14270373240822
H        -0.55867890827033    7.69143816094240   13.46483963998353
C        -0.67563040413120    3.22398003076547   13.84191570484603
H        -1.31328865221563    2.35868642705871   14.09972882756061
H         0.37284386624354    2.88014181066062   13.92240508741172
C        -1.00557870019373    8.83224475712538   15.22605550163389
H         0.02370897205045    9.11447303140205   15.39348486901394
C        -4.89143080445491    3.82080939448316    7.57677257574441
H        -5.84818133614211    4.05637361100173    7.15275521041696
C        -1.99254887202227    9.27937945272131   16.08841382814273
H        -1.73489328472410    9.90496297438537   16.92994023790912
C        -3.31251665003916    8.92385104274824   15.86336773524647
H        -4.08765332178438    9.27206740174965   16.52979623091273
C        -3.93813602735211    2.91070258994709    7.21915897097383
H        -3.97918288347902    2.22298574065549    6.39999838181699
C        -0.92002532541734    4.34526129414593   14.85904724254188
H        -0.31529943449079    5.20997343120380   14.59886064312063
H        -1.96783183884687    4.63782665824420   14.84732773791607
H        -0.65553728794691    4.00924269794774   15.85921434985626

