49
CSD_code = UGAVIJ | q = 0 | S = 0 | Stoichiometry = C12H28Cl2N6Zn | MND = 4
Zn        6.83901565220320    1.46918953219136   10.25849987103639
Cl        5.05072523542221    2.55197022548007    9.44799575202702
N         5.85132719892043   -0.02966833918315   11.24567118954428
N         4.66979800591725    1.04098910302444   12.90112659608167
N         3.58654168540933   -0.55624277614133   11.60057582516263
C         4.72268019528441    0.16513482149527   11.85764382892855
C         3.57645995071527    1.98995369742714   12.97791451523580
H         3.91540362862433    2.97238382622574   12.63644420690409
H         3.22508573588383    2.07364899233112   14.00826862189079
H         2.75665412313549    1.68429014729381   12.33634519106171
C         5.90146610869055    1.54447196653966   13.46536769991871
H         6.64037486492031    0.74725591269295   13.49319507042179
H         5.69638920019227    1.88522345728425   14.48094737524604
H         6.31192401386300    2.38251104063861   12.89195136835759
C         3.09621346945635   -0.70511752395993   10.24842131202611
H         3.61868008716942   -0.01379260057611    9.59012998910292
H         2.03422614320775   -0.44837674447092   10.22535780096782
H         3.21080429942137   -1.73046538978776    9.88284515275482
C         2.66234892932929   -0.92262198135859   12.64622504953058
H         3.13059654041260   -0.77287195686374   13.61544941742809
H         2.41157955478339   -1.98159520811507   12.53503945267903
H         1.73026794168978   -0.34873782406328   12.60630856835853
C         6.09526336047803   -1.19981872263122   10.43411388524800
H         5.53007166717588   -1.17923139414508    9.49750996722958
H         5.83015017260175   -2.10696361688072   10.98961865365722
N         7.82618019222507   -0.02966367363045    9.27076377347700
N         9.00742418282830    1.04089779683982    7.61505375708953
N        10.09090962499593   -0.55625091631486    8.91552935570365
C         8.95473434734185    0.16510282516819    8.65860793463754
C        10.10072378716492    1.98988660068840    7.53803843715080
H         9.76178384822546    2.97235337373987    7.87940685685313
H        10.45200153727290    2.07346630609686    6.50764214509310
H        10.92059755897106    1.68432534353905    8.17957298299947
C         7.77563399849185    1.54432274774873    7.05102436299420
H         7.03677905523179    0.74705244768584    7.02330170919262
H         7.98052403280778    1.88511235684991    6.03542058045355
H         7.36520684915214    2.38231381613745    7.62452929158805
C        10.58144012760783   -0.70506375491191   10.26762052068001
H        10.05913272549644   -0.01364258158849   10.92593996048823
H        11.64344564574869   -0.44839515668399   10.29049168171517
H        10.46683517740266   -1.73037559727385   10.63328772539219
C        11.01495193378418   -0.92264415665935    7.86975580782321
H        10.54655340156871   -0.77295166755525    6.90059623867730
H        11.26577146941146   -1.98160440827932    7.98095183613387
H        11.94701910455403   -0.34872927145044    7.90950455295598
C         7.58239545178739   -1.19975690623841   10.08245000719814
H         8.14759746249545   -1.17898944712450   11.01904278277688
H         7.84760327779487   -2.10693304641539    9.52704284280751
Cl        8.62790744274847    2.55044832517583   11.06975849532347

