66
CSD_code = UGAZIM | q = 0 | S = 0 | Stoichiometry = C29H32Cl2O2Zr | MND = 12
Zr        1.95058272195686    2.89992391127051    6.68548853012292
Cl        1.62452267835021    1.52919539417719    8.56534434517030
Cl        1.63685968866348    4.83373127685392    7.96427444045859
O        -5.47419940333009    4.50258614644606   11.49614614038905
O        -3.82209627900406    3.24230852176391   12.33661748648812
C        -1.14790081300077    4.59071051418908    6.67889551880166
C        -0.46251200434999    3.48764643677783    6.11201917527619
C        -0.45698318335182    2.09979956217247    6.42353113702818
H        -1.06010250613094    1.61246801910933    7.17817086593816
C         0.34619719027240    1.43536737591733    5.47607086747967
C         0.88577926680719    2.38946025124123    4.57344598966680
H         1.35965676749232    2.15357812552704    3.62973530892456
C         0.37763468011503    3.67567062409037    4.94656062786784
C         0.51098628161368    4.96148972280395    4.38592236648814
H         1.10434068744859    5.11279012462766    3.49358095976393
C        -0.17505913940907    6.00710264706040    4.95550528056246
H        -0.08926133026464    6.99700400064903    4.53198754034694
C        -0.99503347966038    5.82463886534194    6.07799394347889
H        -1.49656975728079    6.68168046174441    6.50136773648630
C         0.56694642793870   -0.05126605421357    5.44559543406755
H        -0.37702315476560   -0.57227199744252    5.60482427473074
H         1.24950635759748   -0.35399318298273    6.24786140685485
H         0.97383200976443   -0.36709067792813    4.48589992387683
C        -1.96986890546162    4.42808830852289    7.88567993717553
C        -1.48923579548142    3.69974796066633    8.97595504967398
H        -0.49287154764475    3.27398569508352    8.94302420874278
C        -2.25393198328670    3.55586529922212   10.11539501876993
H        -1.87525562414931    2.99790563108757   10.95715228634015
C        -3.51992548558992    4.13372781622337   10.18628844201867
C        -3.99949202833991    4.86988012678519    9.10429015335759
H        -4.98036884082281    5.31505970233670    9.17721412517742
C        -3.23149253085910    5.01738408542247    7.96904147186903
H        -3.61174203869908    5.57706230159961    7.12713510773540
C        -4.38134355550874    3.99780685990865   11.38163692181219
C        -4.58721490611890    3.05231741803285   13.52455836547581
H        -5.61591089734799    2.79532182190448   13.24657342717079
H        -4.61298372262108    3.99629486808031   14.08181031977331
C        -3.93927863824669    1.94996912202530   14.34162230167291
H        -4.49953974875988    1.79757517796853   15.25954239584998
H        -2.91643092628811    2.22095664469541   14.58906000431077
H        -3.92496582387722    1.02271316546529   13.77494245105736
C         3.84484373850164    3.36762912546163    5.09820439377114
C         4.11083456306250    3.98517159220950    6.35133227577008
C         4.25887945911368    2.95639487371442    7.32892855622579
C         4.10024363479372    1.69996909737876    6.66851052114849
C         3.84834842386383    1.95521069435527    5.29190975018838
C         3.85733625619618    4.08856720105836    3.77911950880077
H         4.87535681480653    4.11629282415197    3.38254279516063
H         3.52114125454635    5.11734366124917    3.89905830060566
H         3.22928373180410    3.59944821491988    3.03573311959125
C         4.36233869865409    5.45392439438348    6.55008612155788
H         5.30818567977179    5.73655430757521    6.08185063762492
H         4.41838656347840    5.69544887391201    7.60899745246542
H         3.56760297634177    6.05763211305924    6.10623784066453
C         4.59143787750166    3.16540054487715    8.78059325732661
H         5.63744520879393    3.45714905986620    8.89749723090967
H         4.42674143100767    2.24982409105060    9.34730096146053
H         3.96516218426996    3.95221063386487    9.20966636520986
C         4.36472273580279    0.34623117241364    7.26745869306842
H         5.44117669291551    0.18212218643145    7.35566362187951
H         3.95518464891182   -0.44397434209313    6.63969173897994
H         3.92736278013055    0.25665381763161    8.26178353848590
C         3.89763436845785    0.91484067726025    4.20657247810776
H         4.92829000749993    0.57883869987492    4.07182351366257
H         3.55913089375110    1.31604376778770    3.25382329597867
H         3.29697866763592    0.03958064342464    4.45185274310349

