70
CSD_code = UGEJUN | q = 0 | S = 0 | Stoichiometry = C21H36Br2N4O6Pt | MND = 4
Pt       13.25860419383515    0.99361142885116    6.47208301083466
Br       14.98441889030626   -0.46150972518491    7.40317749335722
Br       14.76319522639467    1.59255039207967    4.66224804629477
O        12.47705243254812    2.79370816854576   10.22332259441954
O        11.76416565056425    4.14637765275675    7.76303765166600
O         9.45236479725883    5.90733665691278    7.57787855484792
O        11.09847433767614    6.03154859848294    4.18987705614327
O         9.72162765704971    5.28427862451557    1.80014739801881
O         7.39921453975454    3.39865846075189    2.11862632537280
N        10.65505904628192    0.11230031749319    7.45479031347614
N        11.90966525637387    0.22388326109132    9.19692414779449
N        10.55435038160079    1.38770286970929    5.46418644303533
N        11.64136618232818    3.13659216828443    4.85298864677143
C        10.26043882173884    0.11790745215779    6.07145418742671
C        11.91443863421929    0.40717829603772    7.86292526764080
C        10.66350860487482   -0.16359475630259    9.61599205977994
C         9.87068668664375   -0.23512424768507    8.52439550209711
C        11.75205522875045    2.01119797129684    5.57602650335852
C        10.40197661451102    3.20793645107519    4.27096227320668
C         9.71081189332030    2.11430735950487    4.66116983449954
C        13.01609430311814    0.39495047130739   10.10642292556887
C        12.85323684653033    1.66400004307426   10.96222546702761
C        13.44085326554504    3.26532568680797    9.29972723728183
C        12.84906334754761    4.48302783507733    8.59235747318527
C        10.52734384599490    3.95117882248487    8.41567426493133
C         9.40930815384452    4.50192510739664    7.53415361979804
C         8.68027529311447    6.51456337414944    6.57048559219648
C        12.64974153198462    4.15427631240267    4.69208952068682
C        12.13637697960959    5.56352653260018    5.02158190973234
C        11.48837109559912    6.42783644293511    2.89477442056687
C        10.22426511607564    6.57506649108231    2.05694420724058
C         8.48881620512413    5.28401949164044    1.12393647723227
C         8.02549483913614    3.84443094223834    0.93836167228225
C         6.94204249886577    2.07579863540182    2.02072740580969
H        13.67240677965910    2.50659292299445    8.52762214237017
H        14.36876800232470    3.53880990904187    9.82063677013072
H         9.18614651437810   -0.07713731796617    6.00037922760686
H        12.54403409395012    5.22992618384421    9.33641407564239
H        13.60786506712593    4.91169550477337    7.93318430778606
H        10.80841625700151   -0.67971655237861    5.53950521203682
H        10.51465587338449    4.47918091886667    9.37405615762579
H        10.35733453815592    2.88340261865097    8.60547480019401
H        10.44537815309395   -0.36490486546151   10.64414936345372
H         9.54668292107995    4.15241447078811    6.50237556863558
H         8.43505047435103    4.13676262639599    7.90005586184074
H         8.84132904852983   -0.50920853369291    8.41983127232572
H         8.76221203024025    7.58804644777468    6.72690588635318
H         7.62730129612444    6.21437970080302    6.64368293612063
H         9.06060450844251    6.25778513438584    5.57532756026989
H        10.10832017238904    4.00944193529563    3.62398471460907
H        13.03486217729097    4.10796614326202    3.66864687950299
H        13.46892131090186    3.92585475427749    5.37507965212721
H         8.71474222276711    1.79884350294985    4.43235463806428
H        11.71788701170929    5.56417516014562    6.02975743000579
H        12.99175035907184    6.25171283653609    4.98489723507230
H        13.07302378781000   -0.47422087063383   10.76606613771717
H        12.13345780397759    5.67689723615581    2.42362972450565
H        12.02820920490764    7.38546721886692    2.93520482622813
H        13.93714087446186    0.43892064604975    9.52381511795464
H         9.48572979480723    7.16871801900530    2.61423142574800
H        10.45502498105543    7.09096642520175    1.11273552198137
H        12.04758587521598    1.53358057358560   11.69074789090919
H         8.60026137159806    5.76648791837073    0.14069885083546
H         7.73256319092981    5.83274351440271    1.70311575561914
H        13.79613726836364    1.83826182760449   11.50070447149708
H         7.31761440439353    3.79199797111817    0.09658539369182
H         8.89655160135223    3.21527748653874    0.70577902210382
H         6.44238738109758    1.84672043673452    2.96023875662561
H         7.77238648997423    1.37621730373017    1.86008126420010
H         6.22649876003863    1.96146720303186    1.19656864503149

