85
CSD_code = UGENAW | q = -1 | S = 0 | Stoichiometry = C40H36LaO8(1-) | MND = 8
La        3.03841580398918   17.13238830927819    3.79599292729530
O         2.24254820035609   18.18731972611998    5.74962525942273
C         6.67159693592785   15.43153218734704    1.70140649022456
C         5.20744190474527   15.76536422765958    1.72610187958120
O         4.63755969227264   15.70298416007726    2.84964892190086
O         2.45339724942970   16.59460537539499    1.50880949099203
O         3.31463281157970   15.49149469542106    5.55214574983551
O         1.31119822876867   18.75395360863420    3.25022392641096
O         1.05769199798118   15.89891032471086    4.10462606928869
O         5.10918547637878   17.78847532141121    4.87929403667815
C         0.06450829720558   18.93605683700850    5.24781193419434
H        -0.89756196540037   19.21096995153184    5.65146630885076
C         4.55480627425527   16.10991633575267    0.53706047756524
H         5.08885466113759   16.11220585157309   -0.39937593840026
C         7.23300430079483   14.97192556900715    2.89279992070259
H         6.57830681594381   14.87097766058434    3.74637777883919
C         1.05888911252909   18.44083259220455    6.09895396138603
C        -1.04100524580914   15.71578129328929    5.15248284222782
C         7.50117574281741   15.57965315083665    0.59364052250311
H         7.10712746994401   15.94168841857579   -0.34311005986759
O         4.20622040747057   18.70250962033814    2.48484100505665
C         3.21136998815779   16.53251370505059    0.52068816060986
C         6.47312514323270   18.46981841567531    3.07368686115377
H         7.49792706298001   18.59244352544791    2.76049828634277
C         2.65876475666704   16.93202303352044   -0.84537730890557
H         2.68843879606573   16.08137580063031   -1.52394134264201
H         3.26266391325986   17.73297351917851   -1.26641010211354
H         1.63275009105932   17.27093369190604   -0.73197347455624
C         0.45772777078923   15.62141279999187    5.17941716263590
C         5.42912729697572   18.74278888499949    2.18252824970001
C         1.76688770875965   18.24716181970323    8.46467755686406
H         2.76287916366000   18.43797827874437    8.09258172418770
C         0.72178349059857   18.22383570349679    7.54390141816124
C         6.23186743074509   17.99053002423756    4.37478163265008
C        -1.61799136418084   16.21748600269320    3.98572575734199
H        -0.95467803155970   16.48178275743285    3.17494860985864
C         0.26739878947778   19.05908278285375    3.86129924138168
C         8.57786602380273   14.67066913770466    2.97799208881517
H         8.99629271213313   14.31618089479960    3.91056115641632
C         5.75835288318571   19.14320292318860    0.77469359645680
C         2.51033079963679   15.24514855829376    6.47253649310065
C         1.10593815970947   15.24760644194732    6.36205038225302
H         0.53813142167974   15.02561714912726    7.25102949123491
C         9.39453258291920   14.82580389405018    1.86925563251033
H        10.44997221742385   14.59612657141313    1.93093652159155
C        -1.88083635896420   15.35982783106916    6.20413310899866
H        -1.47557757490680   14.95822867523708    7.11985995187929
C         8.84990740437973   15.28059494738930    0.68028994375878
H         9.48378282635815   15.40714055343793   -0.18770476972489
C         3.06635934888429   14.88849485428339    7.84883721538472
H         2.76112552284249   13.88127562836551    8.12682909393387
H         2.68174148011376   15.58481851690970    8.59081963928973
H         4.15099798643205   14.94650137414460    7.82323297846621
C         7.47014647699866   17.71629443975305    5.22549148988276
H         7.97703953054078   18.65357237043567    5.44911562748970
H         8.15916340662443   17.06923444074109    4.68791623305409
H         7.16832170804405   17.24037296904568    6.15445986462462
C         6.97248520914602   18.87039292092386    0.15246844326766
H         7.75239740338266   18.35015218876070    0.68667320071024
C        -0.90082255446316   19.62945727833999    3.05939350321820
H        -0.99683500815013   20.69406784187684    3.26776609744694
H        -1.82993886342282   19.13737901545318    3.33565716563846
H        -0.70944400190875   19.49082931112632    1.99864926488183
C         7.18105205670335   19.23347597914702   -1.16654672501712
H         8.12610462311800   19.00678689139408   -1.64243895356910
C        -0.56369185665280   17.94443695264325    7.99640473909842
H        -1.38313548313750   17.88465037484690    7.29662486856068
C         1.53278118214094   18.01646400905780    9.80683997888437
H         2.35246996036151   18.04115203554429   10.51254799901686
C         4.76089321255297   19.78290977177324    0.04083139450937
H         3.81604411928975   19.96620333692155    0.53145972264309
C         0.24821086123589   17.74338064947222   10.24907058928703
H         0.06181912687949   17.55437086674794   11.29790543588973
C        -3.81007190956100   16.02840105245259    4.93501907865555
H        -4.88194864222127   16.15333539438437    4.85745098184723
C        -0.79506966437757   17.70256532601704    9.33901396967316
H        -1.79674770543117   17.47438354860077    9.67851074161625
C        -3.25164547968574   15.51697511593427    6.09425424239913
H        -3.89101226998609   15.23980408951155    6.92225511790000
C        -2.98547987351591   16.37464413175203    3.87659471791044
H        -3.41469438970042   16.76825863424433    2.96488580858558
C         6.18688544332872   19.87885638747833   -1.88278157145627
H         6.35550558120311   20.16070902102360   -2.91364246417133
C         4.97292331964670   20.15263205097389   -1.27317849832341
H         4.19034086646987   20.65082768992811   -1.82988052585434

