78
CSD_code = UGEQAZ | q = 0 | S = 0 | Stoichiometry = C23H51NOsP2 | MND = 7
Os        0.07309425367118    7.37632224070151    3.87309910278839
H        -0.59020872322725    8.80365002775502    3.72225082409385
H        -1.35488232632743    7.34505824503979    4.52551259590753
H         1.46170815065304    6.73836966005968    3.51124710288491
H         0.88041804071018    8.38805560612358    2.96495195207880
P         1.01905482907498    8.20498182012644    5.88609823137504
P        -0.87308419491642    6.56591600544004    1.85283225859146
N        -0.04879560483232    5.31243301787154    4.76911932299627
C         2.13896282132978    7.01458641330067    6.83952756400581
H         1.59514998318567    6.06170735410335    6.75413604280657
C         3.46995928507883    6.85085804571700    6.10867747678727
H         4.15668693144295    7.64858811078041    6.38090303795663
H         3.31793684682072    6.87656193551724    5.03109350634437
H         3.93674424650672    5.90173615084806    6.37395170634688
C         2.38767715682061    7.26033972417763    8.32667777236093
H         3.07552819423655    6.49618476174113    8.69137865796086
H         1.47580119644705    7.18662635792357    8.91297659121872
H         2.84137724195438    8.22951394373736    8.50747703878995
C        -0.17651786133568    8.68627697402692    7.25831574450333
H         0.41610813560264    8.96525001757375    8.13523516114518
C        -1.06188786400283    7.49760000679885    7.62115066191739
H        -1.65571434127337    7.72395285179693    8.50697192467061
H        -0.47907813474832    6.59886956937478    7.81897957038854
H        -1.74161726503969    7.28892451835126    6.79921603543382
C        -1.05230248955851    9.86564324610557    6.84841276049104
H        -1.48337236828873    9.68197881620155    5.86572690982233
H        -0.49009102434044   10.79552332893049    6.81356906960302
H        -1.86523390446699    9.98941383202507    7.56358606930203
C         1.94828168363104    9.83744271634208    5.70774299230347
H         1.14053079781596   10.47397678587930    5.31624943706487
C         2.51325898604098   10.47988806116506    6.97257869754708
H         3.39211238937807    9.94310861968052    7.32170216710309
H         1.78733054733424   10.53160048007667    7.77888342927395
H         2.82418789177933   11.49866739789148    6.73994097704418
C         3.03469523392047    9.80321699840050    4.63397198123212
H         3.25974168582525   10.81890444676933    4.31009508337766
H         2.69586970012529    9.23640772667924    3.77023945698093
H         3.95352984196806    9.36013014816073    5.00695766501598
C         0.30151512292345    5.76810633284258    0.61690211293914
H        -0.29871578749579    5.38008553909903   -0.21206797741481
C         1.04209528080973    4.60672336313872    1.27351994733937
H         1.61716488684589    4.05514682165657    0.52948630759727
H         0.36129249906072    3.91261623955598    1.76461532495383
H         1.73157297163431    4.99308309033817    2.01948139525783
C         1.31212153599972    6.77456950392483    0.07694513347049
H         1.76893332937730    7.31853411008944    0.90193254766762
H         0.85038194003803    7.49044027186447   -0.59853394250736
H         2.09800542270011    6.25347751491594   -0.46940553616201
C        -1.62184594715127    7.89660794750860    0.74431919758980
H        -0.73727714862916    8.53173984529949    0.58590904584583
C        -2.17168814975228    7.46921703444289   -0.61463224778185
H        -3.11402329540474    6.93826678164777   -0.50289131984831
H        -1.47868550755206    6.84579394053022   -1.17218146219706
H        -2.36837176660783    8.36130646345424   -1.20980104130649
C        -2.65951036941947    8.76423129709526    1.45490595435810
H        -2.76530273676889    9.71202260886894    0.92796810188096
H        -2.34439781992440    8.97348374533059    2.47423448175826
H        -3.63383343371829    8.28482800257381    1.47935772888379
C        -2.15019958313795    5.17997390579446    2.02104337211637
H        -1.70052258257630    4.54025801961450    2.79539530038736
C        -3.45546802223929    5.73639404273330    2.58622022615742
H        -4.07305039074677    6.14645588378601    1.79086393237362
H        -3.25175592237580    6.52464483125888    3.30884129605922
H        -4.02440888617065    4.94765077788883    3.07953402404661
C        -2.44237019504165    4.28987676950127    0.81426520356296
H        -3.22041517611738    3.57760394565581    1.09241215515672
H        -1.57122329027380    3.71884376952268    0.50490660592857
H        -2.80359573983073    4.86212544278283   -0.03417991422875
C        -1.18961641526854    4.81203851783507    5.27492471787789
H        -2.06168277507189    5.44710140131803    5.23290958772820
C        -1.30914678278096    3.55456576221738    5.83208848789553
H        -2.26717569544856    3.23604948255504    6.21355178753383
C         0.98557575130930    3.22227880578643    5.37752383722874
H         1.89047616215764    2.63422663193574    5.38981056296715
C        -0.20084294011943    2.72373704894064    5.89345834956434
H        -0.25887501050928    1.73547499775662    6.32271301213231
C         1.01442002614580    4.49226358157866    4.83699603580717
H         1.94588647220754    4.86748996421415    4.44062108784441

