125
CSD_code = UGEROO | q = 0 | S = 0 | Stoichiometry = C66H53P3RuSi2 | MND = 6
Ru       -1.51485303458334    6.12769301338612   11.82180035967514
H        -2.91435107033786    5.56623704695527   12.21524961378008
Si       -0.59217250293243    4.46875387379411   13.18192087804303
Si       -2.70010966671418    7.65013955860115   10.51765198445011
P         0.69577477788886    6.61974256853274   11.45941548890010
P        -1.84688203619071    7.16734086167824   13.82810976862396
P        -1.64863607695162    4.35672126000833   10.39607386204765
C         1.31122515497261    4.40236959583755   12.99475661799503
C         2.15965647821398    3.49023201155581   13.60387799740159
H         1.74175174731703    2.69699931954968   14.20632323194639
C         3.52963888186887    3.59192808264397   13.44694959872118
H         4.18521644219477    2.87495741191279   13.92093045575908
C         4.06736380170795    4.62913624354965   12.69806343282367
H         5.13948502198433    4.72564168206658   12.59949872284042
C         3.23487920857189    5.54366996268844   12.08239817624902
H         3.65305436348224    6.36618613469454   11.51590952825578
C         1.85390750858749    5.40960805722396   12.20432961242233
C        -0.95010015054579    4.83746467943182   15.02173081784096
C        -0.71148417304154    3.99347278013217   16.09251256449173
H        -0.20533117020791    3.05434933445695   15.92700587452756
C        -1.11709333053683    4.33680425317136   17.37058546470804
H        -0.92342220166895    3.66967775498438   18.19872914861974
C        -1.79913132630241    5.52443657322875   17.58621692652368
H        -2.15116950119292    5.77525148687625   18.57690751637165
C        -2.03434304240772    6.38733592864894   16.53131346080369
H        -2.59537628821062    7.30006067866287   16.68923699001790
C        -1.58023253679336    6.05908627228949   15.25663071875675
C        -1.10272974707294    2.73639349159940   12.56839831900804
C        -1.05750124605809    1.53125466018449   13.24780113240081
H        -0.75594761481527    1.51316710707962   14.28453944868263
C        -1.40938597015011    0.35129757153140   12.61501084998890
H        -1.37543722822083   -0.58383260895360   13.15633132468650
C        -1.80898866825108    0.36404128537094   11.28693463470527
H        -2.08478477133890   -0.55823199510928   10.79553923530770
C        -1.86517952546389    1.55931661920644   10.59436869205339
H        -2.18902445387592    1.58082646875770    9.56088725007034
C        -1.51070858981547    2.74119550451266   11.23704989117161
C         1.51666754547267    8.06622820036672   12.24601892303264
C         2.00674740257230    9.18877501948486   11.59305177149863
H         1.89860725060756    9.29304806156358   10.52356491976732
C         2.66418711195096   10.17645652460958   12.30734591140958
H         3.04479156587264   11.04459883034077   11.78792370418318
C         2.85194544083785   10.04962121444370   13.67151687284636
H         3.38108693563011   10.81462834469195   14.22051785789834
C         2.36130217139486    8.93436529166328   14.33119296192748
H         2.50740401045277    8.82581003779229   15.39599356897278
C         1.68731475708017    7.95912601731243   13.62568580074280
H         1.29641805588312    7.08739586953249   14.14174692815031
C         1.36291310322846    6.75875682364209    9.76047754599489
C         2.28049141271500    5.87759552229387    9.20048380252685
H         2.62025692554340    5.01520894784863    9.75551468315439
C         2.75826828319918    6.09635906315913    7.92071399216118
H         3.48289323600544    5.41398601453453    7.50000505127381
C         2.31433294167463    7.17757008340566    7.17842071715806
H         2.70092484507435    7.34656969044575    6.18385443696865
C         1.35671511370358    8.02699125700248    7.70757139017874
H         0.97611957696793    8.85506859188419    7.12613555102912
C         0.88234286314798    7.81238094475278    8.98667529771389
H         0.11934478420135    8.45972931069242    9.39744430534244
C        -3.59891588117774    7.61286393722684   14.13187315290140
C        -4.47681003237130    6.56782051952102   14.41099423887511
H        -4.09063055505457    5.55826320026971   14.47709340222500
C        -5.82167626472269    6.81420644695539   14.59975607016814
H        -6.49333092545699    5.99707058489883   14.82102775901911
C        -6.30977630403264    8.10779543142692   14.50553672086096
H        -7.36162841573949    8.30279630916966   14.65412653155540
C        -5.44576646340626    9.14875495408880   14.21763382083274
H        -5.82258290631405   10.15813185519152   14.13770331731779
C        -4.09663004304189    8.90563595052037   14.02765515863513
H        -3.43239870395756    9.72937505380131   13.80573789565885
C        -1.07514536008987    8.75303915044532   14.33813353511434
C        -0.59545407042544    9.04723462895776   15.60768596685667
H        -0.59149795099410    8.29192662021626   16.37905905811056
C        -0.09432230591304   10.30711411983909   15.88587192599715
H         0.27124353691176   10.52789852745924   16.87872722343480
C        -0.05371430943641   11.28050127780279   14.90336525861005
H         0.33729228350551   12.26200658842993   15.12753315515094
C        -0.50143124256307   10.98594861605191   13.62588959121362
H        -0.45411251317904   11.73529214963637   12.84859552903421
C        -1.00476421467076    9.73082245491005   13.34796162331365
H        -1.34208399187625    9.48331532072872   12.34641246584608
C        -3.30818817558781    4.09554098386969    9.65239091404078
C        -3.63723785227367    4.25074485761465    8.31165026002063
H        -2.87392660754719    4.48486705666170    7.58361896385144
C        -4.94651514123152    4.08444734644598    7.89040091951053
H        -5.18892966456053    4.21116924282984    6.84465662742771
C        -5.93893083100927    3.75311699795538    8.79519621350743
H        -6.95822891253106    3.62755434082941    8.46091774707916
C        -5.61565492734156    3.57341511178179   10.13096155404488
H        -6.38219515326047    3.30124317293097   10.84236857198937
C        -4.31276081548518    3.74525213505202   10.55445355023023
H        -4.05670288140881    3.60977494802951   11.59837932256844
C        -0.58073574638765    4.13982474521738    8.93380059099863
C         0.28765197437536    3.06955275243986    8.76173494113946
H         0.39075507079869    2.32583114230724    9.53983623643215
C         1.01672961772687    2.95403948974962    7.59074023948026
H         1.68641838319417    2.11608936270820    7.45865337101299
C         0.88159374020449    3.89685651928910    6.58636590053832
H         1.43246586712683    3.78750963610448    5.66362649898632
C         0.05512530901898    4.99373954004207    6.77421715618413
H        -0.03320987887857    5.74730733663908    6.00500816862690
C        -0.65256146005415    5.12747130767216    7.95203033041903
H        -1.26352596509591    6.00522281928786    8.12765539355216
C        -2.45752256456164    8.64330541913353    8.88949130565788
C        -1.83916446201131    9.88978488154225    8.88152425104094
H        -1.49737358760392   10.32100014240909    9.81451535370786
C        -1.65244450650537   10.58904498265704    7.70283803701413
H        -1.17089206585432   11.55704331165515    7.71864173667618
C        -2.07873689872933   10.04596733339263    6.50248988593727
H        -1.92745832367342   10.58592954369098    5.57875315491807
C        -2.70376626757482    8.81019066726901    6.49254429249578
H        -3.04573279849374    8.38552420772561    5.55909840014931
C        -2.89304184702992    8.12067600523315    7.67625531248632
H        -3.39536754279161    7.16222385217716    7.66406759176940
C        -4.53459051330764    8.16157991996992   10.79157364461686
C        -5.48554916273241    7.19674785123488   11.10948591298589
H        -5.18059217360103    6.16383631961293   11.19766298448822
C        -6.80966003014162    7.53943020498048   11.30818021285829
H        -7.53442287807617    6.77299092115564   11.54338707071676
C        -7.20512476907860    8.86242089279104   11.21131550376880
H        -8.23903995198171    9.13399530045013   11.36995582573097
C        -6.26903285289002    9.83786600365931   10.91094138179941
H        -6.57227039844343   10.87301806491045   10.83706122322714
C        -4.94902593000180    9.48827651573157   10.69770117645551
H        -4.22844258716233   10.25656892339134   10.45273328417055

