114
CSD_code = UGERUU | q = 0 | S = 0 | Stoichiometry = C60H46BO2P3RuSi | MND = 6
Ru        6.84217161356512    9.85414830759420    4.42591483500469
Si        6.64142908250755    9.60070790513100    6.71506180274163
P         8.28755943933753   11.42632001955279    5.16731224178384
P         8.26309558911281    8.12200882825780    4.66581913279714
P         4.85997357151872    8.71575049442600    4.35491112404577
B         6.79584028570643   11.95740679939084    2.34658134014184
O         7.19562627945685   10.62772762812020    2.10175165582588
O         5.68780598616672   12.26509246390435    1.57998373380118
C         6.79373826907722   11.36091332529775    7.44629990398354
C         6.20629240194790   11.85372721339670    8.59719598849150
H         5.61068757265935   11.19649653713681    9.21295428292853
C         6.35910714964510   13.18482615447014    8.95276337030312
H         5.89031886266513   13.56360936842262    9.84991861819916
C         7.10189581092638   14.03233022449342    8.14977367679761
H         7.21219549121545   15.07381640860750    8.41688686333899
C         7.70107132324898   13.55357547011089    6.99493454796163
H         8.26592985662808   14.23004789701181    6.36946414379372
C         7.54968441261645   12.22058784833701    6.64343941621111
C         8.20866115920882    8.68916166425408    7.34519855728713
C         8.64943620944515    8.66632443820069    8.65771672853293
H         8.01067320686950    9.05854302981429    9.43624521441472
C         9.89979545151503    8.16179475009726    8.97362148250168
H        10.23509382168645    8.14433324047909   10.00091131627708
C        10.73055521115342    7.70617114934014    7.96513868223172
H        11.72107310707204    7.34386879994604    8.20112993232180
C        10.29980699424514    7.70936399292836    6.64869622122570
H        10.96967269269824    7.36824138029376    5.87344716141444
C         9.03437740696040    8.18155626047166    6.33438960594010
C         4.93104841889550    8.87508142834689    7.13600608043213
C         4.40398098802246    8.71157343276444    8.40576490475920
H         5.04008874406828    8.85664026137865    9.26640845703957
C         3.07617990075780    8.36051838259281    8.58049875706321
H         2.67353135332481    8.23703982970220    9.57590703241316
C         2.25585994122023    8.18541805560870    7.47697737839047
H         1.21257775701641    7.93702838994962    7.61112168144996
C         2.77533790056970    8.31710740162241    6.20160124160606
H         2.14005809239998    8.16995666067360    5.33714565221661
C         4.11609174314452    8.64617430046814    6.02854651776927
C         9.98433040604418   11.13343639925886    5.78118126605286
C        10.30042251974067   11.10518257062918    7.13453289050157
H         9.54191758332561   11.33369028834760    7.86961106378512
C        11.58416034747874   10.78638226160115    7.53909640149143
H        11.82300551412569   10.76979753481765    8.59263839169748
C        12.55893056260890   10.48598740654939    6.60283733281608
H        13.55758538960832   10.22860143325567    6.92450191388655
C        12.25302141500916   10.52230374321362    5.25179022814345
H        13.01178012927213   10.29661421729902    4.51578635042407
C        10.97468238368920   10.84846372431359    4.84477270246775
H        10.73503654224729   10.89931130433866    3.79105653863805
C         8.58403543094983   12.85269235616401    4.06575367363670
C         9.56570425464824   13.79275242958875    4.37620750008585
H        10.23211817611263   13.60777286029602    5.20858542738092
C         9.69758501921247   14.94652902081799    3.62717314667062
H        10.45780744172019   15.67146527010669    3.88082752101189
C         8.84224272065392   15.17452486158409    2.56112596489770
H         8.92499090349941   16.08397289148845    1.98427596718926
C         7.89456631244792   14.22688153699904    2.22345906825548
H         7.24744550605247   14.39183129588307    1.37427052022859
C         7.75419208021872   13.04292651056667    2.95199908625414
C         9.67746975512748    7.83510065283216    3.54350374492074
C        10.49988295084980    6.71005717840466    3.59268601263576
H        10.29742598906307    5.92404729562631    4.30763435436698
C        11.55454256732015    6.58484476201935    2.70805188049534
H        12.19372641011825    5.71445302211517    2.75604583835579
C        11.79144558066718    7.56406229832658    1.75515229186431
H        12.61711091849797    7.45818130295351    1.06628255506271
C        10.95854820029718    8.66673863207986    1.67681867507357
H        11.12708748846148    9.42198398204077    0.92155543950129
C         9.90744623249167    8.79761342334153    2.56721978317434
H         9.24221703746652    9.65274903394910    2.50818215353460
C         7.62851993020236    6.40652384465685    4.78345814535326
C         7.07599681274043    5.93070682770078    5.96820146252397
H         7.02317528812811    6.57599056748804    6.83422691314273
C         6.60585821777887    4.63315484494769    6.04644978993489
H         6.19151109549692    4.26968892447849    6.97589546047347
C         6.67128406472664    3.79895168609838    4.94338237742300
H         6.31879673907964    2.78016502592476    5.01058738024857
C         7.17891102537382    4.27948996068768    3.74850947904987
H         7.21304247473341    3.63964325894169    2.87828989982006
C         7.64352446687112    5.57793508940688    3.66490532818649
H         8.03465457137103    5.95055650443986    2.72678740703408
C         4.57589749986895    6.98489637370112    3.80985203244495
C         3.98628651994808    5.97942645134272    4.56486056732977
H         3.71624347700635    6.15586664648508    5.59493217102842
C         3.74156161297100    4.74079734202482    3.99778925559286
H         3.27373926163718    3.96828687853614    4.59126290510054
C         4.08421973782200    4.48641133392892    2.68126753435611
H         3.87371875709668    3.52200436177770    2.24224080898987
C         4.71533673903331    5.46817433744136    1.93589842964493
H         5.00872591111243    5.27249484742161    0.91395348589723
C         4.96928993663403    6.70051600931381    2.50502629068470
H         5.47556921260942    7.47269349258743    1.94034326161833
C         3.49161551496251    9.54198695185934    3.45414082027557
C         3.10117259521546   10.78043656989395    3.96292317360597
H         3.57735304065718   11.15092411027535    4.86243063559490
C         2.13038448714000   11.52723776301755    3.32695795662208
H         1.83902913467850   12.48662895024306    3.72978031606951
C         1.53167308566241   11.04689096707073    2.17226026704826
H         0.77342733869352   11.63104075135422    1.67085886705545
C         1.90655955388598    9.81506775965953    1.66720178528494
H         1.43897577859430    9.43084037139881    0.77171835218513
C         2.88226841034445    9.06369654792859    2.30094218850158
H         3.15772172299560    8.10215606598066    1.89194101657329
C         6.34037977002435   10.15867608422289    1.15165364678288
C         6.38411017764478    8.96954140887291    0.45254156520100
H         7.15829382917232    8.23990355495008    0.64170282943236
C         5.40432451346579    8.77659055013030   -0.51234742472638
H         5.39999319854314    7.85738807044357   -1.07870634456563
C         4.43839294940015    9.73877485114856   -0.76771468114871
H         3.69161903928468    9.54771326655992   -1.52317529650062
C         4.42217563772090   10.95330296036789   -0.09590635468943
H         3.69270251771405   11.71576341229957   -0.31366655472732
C         5.40043151998835   11.15361774396827    0.85497861988860
H         5.88774596472281   11.10990543558043    4.43030926251761

