80
CSD_code = UGETUW | q = 0 | S = 0 | Stoichiometry = C30H39BrN4O5Pt | MND = 6
Pt        8.49044868140359    6.38873911662545    4.58423639543082
Br       10.56857700677769    4.86483722274812    4.88945343794075
C         9.72355770986720    8.02463041116899    4.38968389977990
H         9.18937203582648    8.97378879257480    4.33203975853084
H        10.37316619006291    7.93812531410745    3.51778598142382
H        10.36540298253603    8.02449557943148    5.27576879762955
C         8.50549016436641    6.24881574245251    2.52757620055682
H         7.57589243780180    5.78684918175621    2.18690565867106
H         9.34113232286866    5.60904422820512    2.23759277019502
H         8.60831286681044    7.20469870553916    2.01411735557249
N         7.39333800710645    4.51239167691867    5.05240423354960
C         7.08973516335622    3.59471029000478    4.15272364450331
H         6.93431699207304    3.92131106448165    3.13272501274805
C         6.97651521317756    2.24022656898281    4.45116238404099
C         7.19792770599631    1.83495157728710    5.76473614238627
H         7.14928458672495    0.79014246511974    6.02723858135828
C         7.48440824026283    2.79782326420167    6.71126275331636
H         7.68173166659717    2.51170642053043    7.73114427291988
C         7.57103742325295    4.13845161296791    6.33016198776955
C         7.89017612530017    5.19185617236291    7.29975388478212
C         7.65905444145768    5.03804349332068    8.66734670650935
H         7.18286722923713    4.14774487272010    9.04335747061776
C         8.00788371718405    6.04167975566634    9.54638177886189
H         7.83218385296686    5.94158988504248   10.60410705877740
C         8.60597708645977    7.19352527819489    9.03638458029951
C         8.76394455341065    7.28518925589194    7.65229049607417
H         9.19581593743193    8.17434167028505    7.21193032753364
N         8.41171076521187    6.32777934725520    6.82001144947015
C         6.64992115945319    1.29725880378515    3.34881964302487
O         6.30174555462493    1.65393733523154    2.25091405522545
O         6.79983048680385    0.02577262713790    3.72127872123505
C         6.52935471849794   -0.97325173045777    2.73556792604798
H         7.09788058608577   -1.84761286624208    3.05831188436770
H         6.89968623831207   -0.62237981563843    1.76697427263900
C         5.04197341177013   -1.28263610410508    2.64983576228247
H         4.87989874510597   -2.08678093936281    1.93817888355241
H         4.49759942584722   -0.40274291378661    2.31569386919480
H         4.66224022068605   -1.58693663360264    3.62241627926323
N         9.03397558003913    8.25093125673955    9.82205687478167
H         9.42012763859594    9.04944985246954    9.33579527310707
C         9.16894965366595    8.27260406828493   11.18738147498628
O         8.83809692343126    7.40651260768832   11.94933334565409
O         9.72009160057396    9.44766981373695   11.54312002621622
C        10.01419635552587    9.61207191183825   12.93591110584765
H         9.18121928416403    9.21416646719864   13.52393366075913
H        10.08909169047548   10.69191925974355   13.07686557627208
C        11.31008752666008    8.91508434517025   13.31917997175588
H        11.53320316254020    9.11716224306082   14.36249303445880
H        12.13072507842758    9.27596555000926   12.70386967358069
H        11.20987831180038    7.84110264354457   13.18324732219165
C         6.71982225424079    7.51965661653416    4.36400446909070
H         6.88536860213934    8.40238019574934    3.74638064012103
H         6.00789914916290    6.85463925037587    3.87007088889338
C         6.26535823045266    7.87325623132163    5.71180231036935
C         5.48230783169657    6.98946890086340    6.46566574375938
H         5.15077144966610    6.06276764897310    6.01629390644506
C         5.13748359500866    7.28001243349912    7.76543503029722
H         4.54087848077659    6.59466443570531    8.34936377884399
C         5.54273968747701    8.46968764340141    8.37097888938262
C         6.26472324124654    9.38515221188203    7.60755394366268
H         6.53804987672423   10.35241701674119    8.00832590558417
C         6.61698796508478    9.09016160287867    6.30676525629622
H         7.17633109354544    9.81290836621829    5.72944634736778
C         5.12339734179373    8.68272057428233    9.78655272508979
O         4.22897386278467    8.02211561633804   10.28608253152210
N         5.81712375536916    9.62790135159470   10.46180717730392
H         6.55121567419156   10.11952450151109    9.98118877253211
C         5.54156390129295   10.05952837829002   11.83258085031062
C         4.11170047989910   10.60201357254406   11.91642592031121
H         3.98304291611853   11.44173405452369   11.23619674897151
H         3.89495906179859   10.93278093177051   12.92834424730913
H         3.40926018060382    9.82044405549427   11.64228249539369
C         5.71095535480650    8.87408358709336   12.78639019101585
H         6.70966304234160    8.45172369673600   12.70558625994986
H         4.99131309716422    8.10137065804550   12.53264849000243
H         5.54263393969902    9.19093297562521   13.81213464813729
C         6.54231737529123   11.16608529227644   12.16595825716648
H         7.56335254532898   10.80887630495342   12.05227559238858
H         6.40521049078816   11.49470044544784   13.19247410185596
H         6.39696106480126   12.02383470100741   11.51112222286746

