96
CSD_code = UGEVAE | q = 0 | S = 0 | Stoichiometry = C38H47BrN4O5Pt | MND = 6
Pt        7.76574083535461    1.67515594519478    4.08285324767533
Br        9.58065616828274    0.33569222106668    2.79213253356822
C         9.19510018451649    3.02323417559683    4.69265314452403
H         8.78986489994045    3.88212450390377    5.22896885271502
H         9.68809721580075    3.36782036324701    3.77850256561708
H         9.95542852343212    2.55115110173606    5.31621618355269
C         8.07676000780950    0.66941986728623    5.85507027163565
H         7.16717557000810    0.13078220738323    6.13193153678942
H         8.35063207773003    1.31167296681354    6.69224942975862
H         8.87815789200817   -0.05543240587242    5.70032115648046
N         6.40471452960845    0.21858160348126    3.09211160040037
C         6.13668453539399   -0.98781518861957    3.55677437508517
H         6.16663837855696   -1.13306239185045    4.62877743238936
C         5.83065657537394   -2.07066623165550    2.73756638229408
C         5.82335915886312   -1.87326845186809    1.35892118950155
H         5.62547851769712   -2.69776454768067    0.69262192985520
C         6.07591665138555   -0.60593787152277    0.87439764425584
H         6.09732732059391   -0.42501015821132   -0.18775056777413
C         6.35448462251226    0.43111524100267    1.76651311816942
C         6.60708965129260    1.79909538560680    1.30251811074932
C         6.09215133821349    2.27838411269892    0.09768116330113
H         5.49263758435970    1.64059560433927   -0.53079989704699
C         6.30711906781457    3.58892136770207   -0.27296258616953
H         5.89427586621254    3.98409838313460   -1.18589187951388
C         7.06324771715589    4.40473636002108    0.56908839275299
C         7.56573769011285    3.83859732295443    1.74227131361217
H         8.16938110538844    4.43127095930076    2.41664493983790
N         7.32746591287470    2.59467409211127    2.10229950601613
C         5.54302125517983   -3.38212591843223    3.37364754840990
O         5.41008639497967   -3.53462282565360    4.56294231892295
O         5.44065465032303   -4.36379024002081    2.47863698612288
C         5.17926660932324   -5.66922512138765    2.99947646671744
H         4.23854166782007   -5.64169059290606    3.56113074603738
H         5.98204817155633   -5.93609248644456    3.69563503532313
C         5.10628179900380   -6.64120779129999    1.83775122335588
H         4.91432041640104   -7.64206559028488    2.21279027829354
H         6.04501680373272   -6.64099959570340    1.29033041951763
H         4.30648958717335   -6.35715276522514    1.15885296410104
N         7.32184450649363    5.74042158801522    0.31933957871708
H         7.87597149525872    6.23134536603202    1.00833455872691
C         6.80595788827271    6.52102149129512   -0.68399290877476
O         6.10754564196279    6.14860791027408   -1.58702872821963
O         7.20139158288661    7.78974246488763   -0.48149999221743
C         6.78743298988060    8.74576376030811   -1.46277550463083
H         6.83736280914707    9.70811174726746   -0.94996666111925
H         5.75431217940502    8.52907685250974   -1.75236956416250
C         7.69335486576491    8.72391679470770   -2.68414811856796
H         7.38617270574273    9.50238068540097   -3.37619002855476
H         7.62069501985074    7.76101568961515   -3.18350555951435
H         8.72650115697338    8.89532379249096   -2.39177920324810
C         6.19510573061004    2.68133273684859    5.07655402173628
H         5.49001577277201    1.89509697437873    5.35722217145745
H         6.55537014245118    3.18216304662374    5.97548921823452
C         5.57370444063109    3.63082134861064    4.14335161872957
C         5.95885468875155    4.97309938427081    4.09788210282086
H         6.69716884709961    5.33353260541942    4.80023623221973
C         5.41430708066883    5.84488573097827    3.17382146622140
H         5.73507361246525    6.87900392407956    3.16219592925171
C         4.47228082292898    5.40714402026007    2.25223083192834
C         4.05643756949138    4.07986116313341    2.30999744803786
H         3.30182486415035    3.73762668350555    1.61674217071810
C         4.58634762494881    3.21417093041163    3.24194768641531
H         4.23918112160425    2.18997101601572    3.27693065018805
C         3.86753093059199    6.33236031244921    1.23378907057351
H         3.99905353343491    5.92997875682746    0.22730020331832
H         4.32538943080031    7.32231847477743    1.28675882219746
C         2.36825025723160    6.42990388204181    1.50462455787596
O         1.53334410685607    5.86334119446749    0.83404524628474
N         2.07126403692344    7.16280768532786    2.59817885837994
H         2.80750694332418    7.63798866043440    3.09483410412939
C         0.71076419559318    7.39293614676604    3.04184378908655
H         0.64164180694187    7.18761031542092    4.11440767937266
H         0.09027434343961    6.67597813078542    2.49593980427454
C         0.26406162472603    8.79914069232575    2.73881805829403
C         0.18744234566236    9.22821716597536    1.41926082487302
H         0.43297927181102    8.53824999945040    0.62503781715090
C        -0.20598706413698   10.51658822929578    1.12144809928504
H        -0.25825116120955   10.81150472914225    0.08424249321902
C        -0.53962569059588   11.42626634455648    2.12371556288914
C        -0.45649862141373   10.98873839238632    3.43904672013159
H        -0.70229369123447   11.64905098115593    4.25467906992186
C        -0.05720336183042    9.69714168579332    3.74257106712934
H        -0.00509400465002    9.38695110535514    4.77724245897829
C        -0.97861143414368   12.83129575593801    1.74238327474675
C        -1.29984434630054   13.70189707803630    2.96019829909208
H        -2.11329414617289   13.27570849078756    3.54269898262235
H        -1.60877612004818   14.69058828442367    2.62673903868419
H        -0.42711029904984   13.82072328713185    3.59837317885725
C        -2.24114328847671   12.73899553543115    0.87379047181761
H        -2.05381439367837   12.18321341731211   -0.04061866331017
H        -2.58336304484737   13.73561704174501    0.60296665984621
H        -3.03688233073878   12.23700686209968    1.42023832263693
C         0.14813131153552   13.51194082984473    0.95215367501791
H         0.37615616892911   12.96957678518995    0.03888216767385
H         1.05299625761478   13.56170928576209    1.55466428364976
H        -0.14291568077526   14.52492314422675    0.68245150799009

