79
CSD_code = UGEWEJ | q = 0 | S = 0 | Stoichiometry = C32H36NiO4P2S4 | MND = 4
Ni       -0.44797624754348    6.05482572448545    4.76444610891339
S         1.42860323518107    6.79834015406516    5.85550466223340
S        -1.67017911650894    6.52504599193837    6.62424580632272
P         0.17853400192185    5.98772645753070    7.20665885370563
O         0.33463097119781    4.41351170898436    7.36483280922171
O         0.48211974029169    6.32072587455841    8.72123824481951
C         0.21430008126438    3.55234733954057    6.23613090686083
H        -0.45731704861841    4.01207493070450    5.45308334233746
H        -0.26809864132741    2.64708124463258    6.61378866742633
C         1.57910151934859    3.23242864623504    5.61814956463390
H         1.97014094917467    4.12984961412549    5.13049210173844
H         1.42666745213724    2.46531281207399    4.85690091854017
C         2.53308077814198    2.75882459483644    6.67756953439602
C         2.53666354698664    1.43144230178356    7.08580942731648
H         1.87341245646452    0.72357736078987    6.60824758126912
C         3.38593431018374    1.00921737818567    8.09281836609260
H         3.38335092286586   -0.02640512144402    8.40068531354171
C         4.23753770402521    1.91242473610918    8.70599244548840
H         4.90031599604128    1.58323801188858    9.49297259209977
C         4.23734116481817    3.23744142192407    8.30554460104601
H         4.90293940286320    3.94367978971509    8.78097808867727
C         3.38935939603430    3.65865327843612    7.29668308041407
H         3.39069182578878    4.69301425486500    6.98366369195309
C         0.37735006457390    7.65632448130367    9.21260011976813
H        -0.40705675941647    7.65345983300056    9.97525835067244
H         0.07970099016544    8.33091490132455    8.40159268283159
C         1.71306315835273    8.09388527228145    9.81172317360131
H         1.56793398237653    9.07218529479223   10.27399118958499
H         1.99608320986896    7.37569952904802   10.58252161892335
C         2.77734154046538    8.16388784667702    8.75110623259208
C         3.68066640954471    7.12336174524487    8.58624675301439
H         3.62958344812706    6.26750820609004    9.24441919655906
C         4.63481535020739    7.17518102782004    7.58452804510036
H         5.33545802951684    6.36155956906658    7.46447029468721
C         4.68973948094035    8.26446060830732    6.73332170063450
H         5.42905435072501    8.30083118150581    5.94744386207808
C         3.79072435999356    9.30532164267353    6.88990125275470
H         3.82732727303477   10.15646462584367    6.22633313540491
C         2.84117764127776    9.25539380759429    7.89384764303526
H         2.13971511088171   10.06943507420960    8.01500595087846
S        -2.32457504036527    5.31145656978558    3.67342229856123
S         0.77420767294485    5.58447379048151    2.90462401158520
P        -1.07442852403611    6.12188029080645    2.32221039299257
O        -1.23029194490698    7.69610403495912    2.16397139525613
O        -1.37803624141351    5.78884975738209    0.80764855627317
C        -1.10979060255951    8.55731325922183    3.29263188801482
H        -0.43821289660122    8.09754191021997    4.07566985694896
H        -0.62728408475224    9.46250317791456    2.91492182135342
C        -2.47448799699468    8.87744219198009    3.91072590211871
H        -2.86564721817811    7.98005501948563    4.39835805826968
H        -2.32187429209086    9.64449243301788    4.67201010014098
C        -3.42846574765229    9.35128867858715    2.85140821502324
C        -3.43186462083390   10.67870781984175    2.44327942021605
H        -2.76840085412467   11.38640682487618    2.92079535893921
C        -4.28122971395018   11.10118296431829    1.43645781682633
H        -4.27850128205948   12.13682927188767    1.12867616344262
C        -5.13309550899928   10.19818955399798    0.82334114085912
H        -5.79597821751881   10.52757977321653    0.03653097793503
C        -5.13303105663188    8.87312513340121    1.22362297860749
H        -5.79889194042849    8.16705838946539    0.74828273880298
C        -4.28497316601124    8.45166648360458    2.23231757829879
H        -4.28648101337050    7.41728336618865    2.54528024465837
C        -1.27323844673861    4.45322912788003    0.31635683619196
H        -0.48881732780734    4.45606384398930   -0.44628880962300
H        -0.97560132990691    3.77870974658390    1.12742255988047
C        -2.60897075221937    4.01563293620800   -0.28270441034153
H        -2.46386534672241    3.03721268030181   -0.74471258965940
H        -2.89192354766906    4.73362774387923   -1.05370339322799
C        -3.67330577814147    3.94594442258507    0.77787678244629
C        -4.57635139438482    4.98672241083873    0.94266100315931
H        -4.52501219454117    5.84254392829287    0.28445923070166
C        -5.53054512171306    4.93520265946648    1.94435059554314
H        -6.23092789928899    5.74906014099017    2.06439747015101
C        -5.58578737093163    3.84597584527336    2.79560520888383
H        -6.32506167404582    3.80989740195788    3.58153854095311
C        -4.68703185214321    2.80487969035048    2.63911788542256
H        -4.72382753176657    1.95382676376874    3.30278559136801
C        -3.73744348879463    2.85450643585014    1.63519657454728
H        -3.03618669399978    2.04028037441806    1.51410609725854

