33
CSD_code = UGEWOT | q = 0 | S = 0 | Stoichiometry = C16H8Cl2FeO5S | MND = 8
Fe        3.74523850824189    3.32347089103738   10.15889424086766
Cl        4.96773922719699   -3.29667049338969    7.68129037347531
Cl        2.82772868112269    2.03903523422049    2.32103459411422
S         4.04543546979979    1.36658359799401    9.05783290928884
O         3.42068227378327    2.95725525067393    7.15213706882417
O         4.78951438752559   -3.78803550419063    5.17015079856974
O         3.50553195332894   -0.36757663796746    1.74662382305632
O         1.33806429558490    4.13400695920288    8.77916102508378
O         5.14569304879616    5.00303905323679    8.26858549345232
C         3.72455743057607    1.80456103960997    7.41969466754887
C         3.83486226588937    0.74038320411538    6.39567229248866
C         4.19824861722248   -0.56157476713246    6.72078404178759
H         4.40548788816858   -0.81154698039372    7.74996768111295
C         4.29309792332039   -1.52676780639730    5.72256241960462
C         4.02280826492623   -1.18212946304256    4.39829334739958
H         4.09813083891976   -1.93009034181594    3.62256668441766
C         3.65378375528244    0.12166210041539    4.06992256094883
C         3.56153685558354    1.08151895407933    5.07271468928023
H         3.28168790775841    2.10048079216881    4.85165667123733
C         4.67294617698110   -2.92679211942574    5.98042954225491
C         3.38461044310376    0.39926491330115    2.64681091793918
C         5.02735398563173    3.98197366733383   11.87751677815540
H         5.97001460055607    4.50047738269553   11.82860326039465
C         3.74635456473018    4.59367527853935   11.95347217925478
H         3.56011138047444    5.65341540024703   12.02617709462086
C         2.78652280244015    3.56805533243855   12.16922953639394
H         1.74064081621621    3.71930962051228   12.37763409758522
C         3.45784113220490    2.33509224549972   12.15282187457418
H         3.02499369290480    1.37130946004556   12.36137308322711
C         4.85049076309191    2.59305877494542   11.97422738654122
H         5.63159016163431    1.85297199663683   12.02068448920013
C         2.29874648688075    3.76481588897088    9.26596261245064
C         4.59125340012820    4.28866707584150    8.96031176486840

