39
CSD_code = UGEXIO | q = 1 | S = 0 | Stoichiometry = C13H20N3NiO2(1+) | MND = 4
Ni        1.52997023698232   13.43449880619445    4.52091784932506
C         2.98543087140448    9.48659983477632    2.55047900359122
H         2.44599665517651    8.55994898827710    2.65100693167656
C         4.19112547475703    9.45568471655042    1.92043860015641
H         4.58805514048835    8.54208216489866    1.51065834394113
C         4.96455404084673   10.63149106464926    1.79490574340838
C         4.48727456080651   11.80640928774356    2.34146975274395
H         5.03688625350892   12.73130884749759    2.27679832934050
C         3.24460091124491   11.86132181477884    2.99669009056031
C         2.45480915892283   10.67403005074624    3.10925981276680
C         1.21173056746953   10.68309428257881    3.81376996297240
C         0.32346030314807    9.47536246344674    3.73432549965015
H         0.51871325652709    8.80921777557583    4.57472725075075
H         0.49551052436892    8.92838361782289    2.81451756012140
H        -0.72482752940543    9.76074445671183    3.75883483669144
C        -0.38204889187473   11.63117455867314    5.35912892244449
H        -0.43418294711944   10.67343445380476    5.88545446699729
H        -1.27010662439571   11.72971792897095    4.72009032050070
C        -0.34940471428074   12.77434516985293    6.37727693375499
H        -1.32262516483159   12.89570938483288    6.86718135354735
H         0.40448960334494   12.56083987343256    7.14063331230408
C         0.44919070346107   15.13855605372752    6.46969684411018
H         1.13719144143389   14.79427250666874    7.24737220161105
H        -0.41464676599928   15.60952624092940    6.95206620096440
C         1.17008849156275   16.11714708402172    5.53822256010829
H         0.45622063700071   16.53769437089939    4.82485947873547
H         1.61320322723835   16.93978679487925    6.10880025452433
C         6.97086409111697   11.61419099101668    0.98506218065636
H         6.47930903031019   12.40045745631313    0.40581587551191
H         7.83876287458192   11.25073402433271    0.43859944339210
H         7.29031016445696   12.01349693792471    1.95149251037912
H        -0.70724996720298   14.26611086976165    5.03884812430375
H         3.03467846387781   15.24937893474920    5.34849907138521
H         2.45687589763458   15.83287301858537    3.93435958664319
N         0.83654710147404   11.70776610513662    4.54376374497460
N         0.06462690567712   13.98096200153128    5.64965277407208
N         2.18335297860912   15.34834934319180    4.78915152957901
O         2.87723469316629   13.02535179789927    3.44438415543696
O         6.12692834450900   10.49374592661195    1.14778858636610

