119
CSD_code = UGIBIW | q = 1 | S = 0 | Stoichiometry = C63H50Cl2OsP3(1+) | MND = 6
Os       20.62060316117674   15.64910560620932    7.34540615011623
P        20.01171970907996   15.65011612099701    9.66116672582378
P        20.18673034752125   20.17011505071711    6.54208727800874
Cl       23.01449421290020   15.82304745599281    7.90523425957072
Cl       20.62553023901182   13.37740159522580    7.72090160396574
P        21.21460511577249   15.03598638332887    5.10635696013098
C        18.52460850565677   15.69311018944945    6.83742861470375
C        20.42217920545421   17.42964551980576    7.04012842399219
C        18.25542951445346   18.18506832852397    6.57562105118362
H        17.56178782674462   18.99923498526766    6.39059800029098
C        18.30485577723321   15.06378035601490    9.85312240355047
C        22.13550759350878   14.05168906424403   10.63860135659275
H        22.59214868565381   14.12644978552538    9.66418713824969
C        19.74636366687005   14.41549949848220    4.23910038841799
C        22.48516175177630   13.78079841295506    4.75569632449778
C        21.83949431841530   16.39727187750276    4.05683536026302
C        20.92189405115201   14.67207776204615   10.89939348145287
C        17.73730424900408   16.86205677065844    6.59388315364604
C        22.84887535166220   17.18010520180860    4.61213823848452
H        23.20502623308812   16.94741341434951    5.60666960125871
C        21.74637530412054   20.41420994391981    7.40115694111937
C        22.63260031505059   13.39010143652155    3.42380314778519
H        21.99475029102107   13.81889599256261    2.66247072902685
C        19.59627862976902   18.48594810147642    6.76421095892685
C        18.95750996542756   21.30211972868105    7.21238967343230
C        20.04585376480740   17.28865013429548   10.47363339470794
C        17.84674018532879   14.47786652393145    6.75687016444950
H        18.38100040328010   13.55510828201222    6.92343511519125
C        20.42937343332940   20.47544609931992    4.77724324366720
C        19.51259875842496   13.05213910282184    4.10461350872003
H        20.25018969778726   12.34240156080983    4.45214523255940
C        19.09573765050173   17.73741251015240   11.38444995390568
H        18.24384446391936   17.12297428838638   11.63674690934197
C        17.24196520276598   15.93192243062936    9.61199300189147
H        17.44273136234144   16.96740160595618    9.37037021476412
C        15.73949476166747   15.51982622686161    6.25238198261145
H        14.68505986667277   15.44496072879183    6.03548032750418
C        18.35478705260264   22.29048345557209    6.44226659186839
H        18.61532394661746   22.39817419393479    5.39829825921202
C        20.35695176077438   14.58351540610007   12.17249785556644
H        19.41384306753369   15.07048065752780   12.38001500855513
C        16.49810718137453   14.37625768778764    6.47470482308307
H        16.03536814878828   13.40195480620920    6.43149667258749
C        19.23738953868444   18.98257622209078   11.97286263617046
H        18.49418201816295   19.32685841446697   12.67677935483528
C        16.35562643000926   16.74095496299759    6.31399864984184
H        15.78523686031504   17.64345320243049    6.14115241211762
C        21.34736007639899   21.44087747068929    4.37187741158498
H        21.93007367548634   21.97488144641759    5.10977714371629
C        18.77461488912031   15.32594710374775    3.82689534376625
H        18.94775105742293   16.38461227236807    3.97373642968774
C        18.05093728663666   13.72225346630112   10.11770121507042
H        18.87444866492488   13.04089196562448   10.27921862067027
C        24.40460767369389   11.90517741359766    4.06088852729801
H        25.14840986899914   11.17095107108957    3.79069439546102
C        23.58717427631321   12.45334775515742    3.08300415633013
H        23.69548939681188   12.14883708204900    2.05271204838914
C        22.77123432182931   13.33297690805691   11.63729265346159
H        23.71271745697114   12.84805901446277   11.42747632869624
C        21.15331991419293   18.08498638482614   10.19226220971473
H        21.90851969805365   17.71357786148416    9.51246351318749
C        23.31290668774522   13.24127704670165    5.72997824151155
H        23.22262214141417   13.55023741390611    6.75945202140704
C        23.41212390177975   18.21445549597361    3.88910808343182
H        24.19155688983481   18.81846403248995    4.32975842923358
C        20.32944765333168   19.78019091963838   11.67230652499417
H        20.43468852519424   20.74971947125509   12.13587317144804
C        19.68410237702794   19.77031011287941    3.83728547178321
H        18.98494677890067   19.01188907402162    4.16134671651342
C        24.26846208192526   12.30222634740406    5.37888188374834
H        24.90750066451445   11.88188942832624    6.14071501118314
C        22.06526408913972   21.66024531106872    7.93734961573739
H        21.35248885200551   22.47274359945029    7.88812281467407
C        22.65183620196870   19.36161489983088    7.46580169872510
H        22.37505677349391   18.39308552235387    7.06599570602335
C        17.42471751066674   23.13077407861354    7.03022987547015
H        16.95302133033895   23.90269276993853    6.44195887820507
C        18.33322311054570   12.60792246438411    3.53190793881192
H        18.15541784645917   11.54828120512447    3.42696843100589
C        20.99752628500794   13.86566741599283   13.16220966476699
H        20.55455050673107   13.79469400700398   14.14444106357449
C        18.63271074310364   21.14733743827918    8.56025551542198
H        19.11377969626795   20.37057164579155    9.14146817730565
C        17.60415014986294   14.87757730545330    3.24815861602393
H        16.85752492983098   15.58603761883226    2.92081093305022
C        15.94217916024034   15.46872861387200    9.67273944140034
H        15.12109538918198   16.14773946400230    9.49640242497942
C        19.84932294883492   20.04517141602329    2.49245424185865
H        19.27016904367528   19.50392741777598    1.76043030521186
C        22.20458377448249   13.23610679199251   12.89540848838787
H        22.70063028794452   12.67249903608072   13.67106616103635
C        17.10134586347986   22.98295899944489    8.36998615981995
H        16.37686542575107   23.64271365460000    8.82171651955142
C        24.19966397768623   20.78724023979804    8.61143428310852
H        25.15602015431643   20.93465230313015    9.08944003649567
C        17.70312256491781   21.99262508061886    9.13417994683236
H        17.44787699728319   21.88089768047068   10.17659901408770
C        21.43182831493822   16.63599568658329    2.74952770939353
H        20.67208981524950   16.01963787387284    2.29089571557300
C        20.75372479947464   21.01402734425340    2.08700243269188
H        20.87720600974514   21.22759178189871    1.03658238486180
C        23.29650557613169   21.83872593278010    8.54169826976705
H        23.55123840529171   22.79936944626527    8.96298656293034
C        22.00866695145302   17.66462326373113    2.02491361980184
H        21.69737600982137   17.83778592686075    1.00539507844300
C        21.50440455444943   21.70681377003503    3.02426222166978
H        22.21192227050448   22.45641608293949    2.70479528027484
C        17.38317124388148   13.51675585609748    3.09846494745506
H        16.46620747964268   13.16664707381870    2.64940301738084
C        23.87693699199639   19.54852631697976    8.07834928121115
H        24.56749190844935   18.72220795871793    8.14410754532216
C        21.29489584858347   19.32440450243659   10.78812414145299
H        22.16019109241546   19.93257454890773   10.56941689345949
C        22.98853608527296   18.46085064646898    2.59337116677725
H        23.43303004445089   19.26092581319457    2.02081765827886
C        16.74692497675278   13.26235022508640   10.16668038099192
H        16.55426720325784   12.22031228153722   10.37284173847166
C        15.69287317217291   14.13372801652049    9.95074465253660
H        14.67631209705163   13.77332002754079    9.99405451997760

