60
CSD_code = UGINEE | q = 0 | S = 0 | Stoichiometry = C33H21N5Zn | MND = 5
Zn        0.53016144607363   12.91246388398413    9.88658920821279
N         1.61075217848741   11.27267675865643   10.52127471029381
N         1.84613298384408   13.14920404979529    8.31378498382106
N        -0.71265577473235   14.27567142919215    9.02096479982427
N        -0.94660541466210   12.41914822200836   11.20051701698899
N         1.53300699268780   14.33020657717499   11.19722125312409
C         1.29638926915819   10.47625275643496   11.57802780957237
C         2.35506353937699    9.50842025811522   11.79394286151763
C         3.32056660412787    9.76662111337866   10.80466140185865
C         2.80705671908137   10.88034108472668   10.02917358783199
C         3.46029617172164   11.43596532547205    8.94338144208797
H         4.41413163082571   11.00366224037393    8.67759848620807
C         3.00641475070533   12.47516335059154    8.15063060384202
C         3.72403852448456   12.99509921206749    7.00165305036802
C         2.92094027868496   14.02460151200611    6.47944840215955
C         1.74950084349426   14.08622548521873    7.33269605508007
C         0.70476816924300   14.96894885181763    7.16041727295589
H         0.77341867208021   15.65870442788085    6.33061005483411
C        -0.44246782582605   15.04873301044429    7.94483459578443
C        -1.51724356852207   15.97510010376589    7.71874075762559
H        -1.54901652957717   16.69855972857856    6.92602997975001
C        -2.44059539019003   15.73784109435609    8.68137437578329
H        -3.38310453008067   16.22752213643590    8.83773561787672
C        -1.92594790945099   14.66780421031251    9.49067753271416
C        -2.58305155296924   14.11930695885719   10.57994170446044
H        -3.54759256355061   14.53845805881263   10.83348575952532
C        -2.12774187822332   13.07110590735023   11.36296686274401
C        -2.84932496047075   12.50630755448628   12.46980663963030
H        -3.81240479473254   12.83832854913208   12.80860300757023
C        -2.08196870939336   11.50446490422386   12.96278657002343
H        -2.28812642020090   10.84867127918861   13.78755419772874
C        -0.89468376630602   11.46228776547025   12.15473044810646
C         0.15008331736639   10.56102056508803   12.33901194629646
H         0.04275888526432    9.85382749633286   13.14982663782054
C         2.53842529744444    8.48692136203100   12.71415273681173
H         1.80173974641119    8.27935640042000   13.47624564989661
C         3.69456578268959    7.73412984200798   12.62960712822857
H         3.86293044911988    6.93164320834361   13.33324102405964
C         4.65111548096006    7.98948793498659   11.64929671210225
H         5.54237013687893    7.37983414584682   11.61184520220485
C         4.47694924895043    9.00454926232459   10.72744732188758
H         5.22352718371195    9.19279444481125    9.97002597719318
C         4.93367611673658   12.66921758718039    6.40627471854765
H         5.55660426210374   11.87835342788129    6.79743227859313
C         5.32459701272063   13.38539405871564    5.29058230210566
H         6.26179630989995   13.15191398800242    4.80625457570767
C         4.52925262716050   14.40608302860648    4.77405600556460
H         4.86541360335851   14.94428593956656    3.89955242654297
C         3.32156649625142   14.73737008369832    5.35904249988292
H         2.71084630309281   15.52839644524493    4.94931298235787
C         1.92721349333301   15.51146827462233   10.74206976486071
H         1.74329666764022   15.69985973159489    9.69442325446542
C         2.53846753012500   16.46180336202956   11.54349758578918
H         2.84177913776613   17.40974469294280   11.12755890492659
C         2.74822478531447   16.16758207991110   12.88120793966594
H         3.22121595097794   16.88349624279114   13.53727916343517
C         2.33640348322968   14.93309627150858   13.35718114871399
H         2.47844919257887   14.65930994667588   14.39083940404074
C         1.73397757282871   14.04886889947811   12.47720070385868
H         1.39704674089520   13.07662347704943   12.80617295453783

