32
CSD_code = UGIPUV | q = 1 | S = 0 | Stoichiometry = C16H12MnO3(1+) | MND = 9
Mn        1.04571172978292   12.23411340489615    4.12777548966229
O         3.46133169692382   13.88263798065562    4.46719247333849
O         0.11220054064921   13.71145211233777    1.76094389385454
O        -0.50705388803839   13.87804979473090    6.01310275835066
C         1.47678568262449   10.31393453157725    2.73540961931697
C         0.07579162530900   10.27782453090357    3.00057441343473
C        -0.35438919423223   10.34038412564185    4.34051325943151
C         0.55896902974857   10.37750528162721    5.40950924988405
C         1.93663543361023   10.38786687503274    5.14840956565566
C         2.38364281026093   10.37370697568854    3.81526416409787
C        -0.92410420054052   10.10344963978004    1.90594798919044
C         2.01952557060526   10.23865473106298    1.36444151614996
C         1.79895657710437    9.11781777570500    0.56766625993334
C         2.34716032524030    9.05624969675038   -0.70072783980641
C         3.10263098977197   10.11029169503196   -1.18725334587529
C         3.32085874399472   11.22933002882454   -0.39880221905047
C         2.78985755499403   11.29204414760398    0.87544754092095
C         2.50931707713140   13.27715433570459    4.33145913520726
C         0.48402779529281   13.18741977465588    2.69891543846028
C         0.10339889840763   13.27716389938665    5.26867834307709
H        -1.41506579633926   10.25363353557740    4.55188896964228
H         0.19716658521185   10.30670430998919    6.42922360566008
H         2.64958042360501   10.31132874433685    5.96200426316802
H         3.44537475410788   10.29760041759495    3.60233797608823
H        -1.12968464873565    9.03960939744218    1.77244309371689
H        -0.55606309087211   10.49275267160910    0.95900825686579
H        -1.86603463716098   10.58940168124287    2.15321607281010
H         1.22633578308712    8.28619112133308    0.95056770037082
H         2.18055306447654    8.18139668052569   -1.30940688581693
H         3.52112012631727   10.06053084181093   -2.17985600601585
H         3.90530407054339   12.05402769298099   -0.77496063754914
H         2.94485856711864   12.17157156795982    1.49356588582566

