26
CSD_code = UGIPOP | q = 0 | S = 0 | Stoichiometry = C10H7BF3MnO4 | MND = 9
Mn        1.54174306807248    0.92107985623976    2.90010709451479
B         1.24777437693669    2.65747250589152    6.18482470665512
O         1.82738557370222    1.25063413488147    6.23415374267349
O        -1.25969609961180    0.89121315964455    3.80236645789905
O         1.01222454973226   -0.49575362895458    0.38820814356773
O         1.23441566851601    3.59258064929701    1.71990618600895
F         0.22268114313932    2.72105481298020    7.05320652940020
F         0.77969244050771    2.79359688296863    4.83575965319057
F         2.21315259986237    3.59584064449307    6.40239210994304
C         2.42256601374716    0.83109100337640    5.15703391984108
C         2.18381522709528   -0.49630053823092    4.69140533986172
C         2.85249832823578   -0.99731691239562    3.57136529457183
C         3.71882090873699   -0.18791096445299    2.81134552268331
C         3.90167734711582    1.15000234997183    3.22703392971023
C         3.29150319045906    1.64454430727679    4.37987305083089
C         4.52378726687143   -0.76269348453448    1.68559314600542
C        -0.19321678142491    0.90528740739428    3.41585098346160
C         1.19242208839941    0.08090705342519    1.36238861092225
C         1.33345163003692    2.53781729988408    2.13592802517296
H         1.57563951425204   -1.14596007113677    5.31105240203589
H         2.74366332576575   -2.04514933637238    3.31193243045349
H         4.62257644639783    1.76922789848588    2.70182204077083
H         3.51057406600443    2.64312851012425    4.73624282006833
H         4.76611955519393   -0.00269199519894    0.94623303647718
H         3.99328716476676   -1.57494963079149    1.19361767649877
H         5.46064138748866   -1.16105191426693    2.07975714678225

