75
CSD_code = UGIPAD | q = 0 | S = 0 | Stoichiometry = C36H32FeN4P2 | MND = 6
C        -0.12166366856836    3.11246390545162    9.55801162210543
H        -0.48997846589910    2.96034203964013    8.54012017900791
H        -0.97273590310057    3.20145127625412   10.23723087912248
C         0.77023391903113    4.29933313303603    9.65658819298309
C         0.73403751977337    5.30978058203369    8.70771901181861
H         0.00176141379721    5.26272122010054    7.91589288148419
C         1.63082507349761    6.36301750484530    8.77563719551736
H         1.60817344912161    7.15893735071719    8.04771215410694
C         2.56968474326056    6.34772967396642    9.79689021975928
H         3.31273335081202    7.12433881756708    9.88530340728030
C         2.54410495363272    5.31202894209166   10.70692705697080
H         3.27385924049958    5.26957457186490   11.50028825552832
C         2.23359297093811    1.38207173249014    9.04855226040886
H         2.09092368868398    0.90081155808367    8.09338518983190
C         3.47282924450703    1.86789910545991    9.44416553077089
C         4.62957610068674    1.72380696955862    8.62518548244897
H         4.51631992826449    1.21923997127660    7.67742249123459
C         5.83498035860669    2.21241011859749    9.02719592903735
H         6.71390594198547    2.10272031608430    8.40780758225662
C         5.92139173850700    2.87161349461509   10.26330609041951
H         6.85208286936502    3.28602718074296   10.61552920439745
C         4.77787850269203    2.97755998705288   11.01637933833506
H         4.80898658763193    3.48651223054290   11.97091691472643
C        -0.19748914293407    0.32199441512120   10.23333811950006
C         0.17098518907996   -0.90058677097307    9.68179251368773
H         1.12689931978345   -0.98724414727686    9.18503403120099
C        -0.67194396160216   -1.99236349051059    9.77947900110756
H        -0.38251343263405   -2.93670343057530    9.34076994933184
C        -1.87910531076061   -1.87869417842914   10.44840321748884
H        -2.53437836084009   -2.73380872758609   10.53240575498869
C        -2.24312919028181   -0.66829944138208   11.01794459730502
H        -3.17904990355417   -0.58239999478160   11.55149949149915
C        -1.40936034650622    0.42824294084045   10.91125231032153
H        -1.69216897307842    1.36485535240196   11.36963175687261
C         0.99972621528642    0.61833532411069   13.70143567607187
H         0.85637773170857   -0.22187243773789   14.36310902730821
C         0.09117375092236    1.66699261705709   13.64470768630514
C        -1.09676540656321    1.67192871357968   14.43105534326704
H        -1.27633892532008    0.82649627358480   15.07810478533706
C        -1.97130884436023    2.71339806051743   14.36836494347870
H        -2.87351944124670    2.71836950077819   14.96345768539492
C        -1.68093235892936    3.79266000860459   13.51935221613586
H        -2.33738368803224    4.64473191445909   13.44846904927020
C        -0.52694828250948    3.73390777287878   12.77727742983773
H        -0.27102172316520    4.55244247949645   12.11724637403375
C         3.88147837278903    1.32432790353633   13.73229389701048
H         4.06939579468829    0.64223046931540   14.56559168201430
H         4.75456193219352    1.33646681357007   13.07569721440383
C         3.54207879134473    2.69531200155889   14.20023785634954
C         3.89164356630545    3.13141010522164   15.46929792256217
H         4.47626928610076    2.48468694228151   16.10600288719573
C         3.49035490992073    4.38053393091872   15.91291593829861
H         3.76189465996869    4.73414199776441   16.89535393973188
C         2.71200022282995    5.14985955458005   15.06029245122613
H         2.34347700418692    6.11801629632171   15.36015206611309
C         2.40739642460972    4.65371352962847   13.81018153623782
H         1.79069599823666    5.22660003911763   13.13543209041791
C         2.91068396093636   -0.73531549883522   11.98259395601289
C         2.04300560471724   -1.82173027318466   12.02067619090141
H         1.08996508473894   -1.71690315268172   12.51947981758744
C         2.39320104064671   -3.01566652939657   11.41745910007515
H         1.71726453041720   -3.85791188525731   11.45848539012172
C         3.60231856329458   -3.12776274604402   10.75190242275452
H         3.87283124212708   -4.05794345483113   10.27312458850423
C         4.46256758501464   -2.04227947732144   10.69259575872590
H         5.40049913689657   -2.12504856499181   10.16215043994349
C         4.12170254619990   -0.85155975225617   11.30486492117433
H         4.79012752427013   -0.00500271889818   11.24293324855211
N         1.66285811317499    4.30689700862391   10.67073053707438
N         3.59193191309828    2.48983587366817   10.66164276706600
N         0.33418815100715    2.71994621239884   12.79890759783377
N         2.81606239275494    3.46324141827000   13.35854164493292
P         0.96231460155386    1.71114078518901   10.18252049826991
P         2.39196516028348    0.84754603231790   12.69163389495122
Fe        1.98595741349769    2.71164270316640   11.75410971466143

