93
CSD_code = UGIPUW | q = 0 | S = 0 | Stoichiometry = C43H44ClMnN4 | MND = 5
C        13.80695739495476   13.08753012908968   13.80957979585993
C        14.02283268102243   13.68950499402496   12.56632713484010
H        14.73710030564420   13.39179848030266   11.82525805443021
C        13.13347990677853   14.73863590645440   12.46514195257260
H        13.02058137406405   15.42176070766785   11.64622612498080
C        12.40539212869410   14.76969926823269   13.66669646712129
C        11.48483040136652   15.76780634757094   14.02410843622019
C        10.79423218104146   15.70279037053481   15.22158253537173
C         9.85105551371821   16.60455341005081   15.81647111318896
C         9.32459307764905   15.97391342101204   16.92359353046825
C         9.94534867605002   14.69011869191858   16.99943937146554
C         9.82992548859710   13.47793329563692   17.71375620425722
C         8.91633296563489   12.82150682265765   18.59860718204514
C         9.38327652400723   11.53799691583506   18.76595463103592
C        10.56953203734360   11.40836810477878   17.96597043038012
C        11.34782072187330   10.29870960196141   17.68059314359233
C        12.37234105107183   10.34405722975457   16.72444608109649
C        13.18320122139563    9.24946101325956   16.37237849563233
H        13.10082048889005    8.25723098815414   16.77049280992679
C        14.09062921981292    9.70645666081935   15.44343287579519
H        14.85911169541064    9.12862746437906   14.97040619425725
C        13.82477351360975   11.06687032527133   15.24412149589275
C        14.65228777502519   11.99839774262071   14.40596480017951
C         9.54943469398332   17.98251815377748   15.33719757574998
H         8.78901226338992   17.96527398481424   14.55605911717360
H        10.44016340875752   18.44848177864766   14.92260168331457
H         9.18483904775082   18.59901523081854   16.15487309005137
C         8.39717389392039   16.57554895470990   17.92472394203088
H         8.01771405615447   17.52521545269514   17.54430352070684
H         7.54028337388570   15.92267923855339   18.08033874448950
C         9.10310864636370   16.82297385851773   19.27038341543256
H         9.53444259066501   15.87582853132091   19.61306468164239
C        10.23738963904749   17.83093135921091   19.10854558728123
H        10.95566765829668   17.48276947566080   18.37005713328335
H        10.75784292112483   17.97202445217884   20.05334905438216
H         9.84946841372654   18.79528640491803   18.78526621147859
C         8.09920651962816   17.31815286641221   20.30840670867845
H         8.59129333524178   17.48799301387019   21.26343894937255
H         7.30257560446510   16.59258060983640   20.46132594240951
H         7.64991972114576   18.25505660635307   19.98418660556490
C         7.63719660744114   13.37394122514356   19.13091016934356
H         7.29779913701285   12.76640972123817   19.97158231179657
H         7.79737398153910   14.38428269623736   19.50389618250083
C         6.53241677837916   13.39284492005195   18.05754386277900
H         6.90111559975007   13.95810549720793   17.19456694441833
C         6.19956827517243   11.97976515449862   17.58849904646219
H         7.08642971330490   11.48947209337997   17.19589921693827
H         5.44744982077077   12.01060292298840   16.80323488929300
H         5.80897586112797   11.38543786541019   18.41200650032425
C         5.27986291052130   14.07292575998186   18.60592531223173
H         4.50113811837974   14.10415812378057   17.84721309558860
H         5.48903018326268   15.09398705766950   18.91927792092155
H         4.89760563230478   13.52507286384399   19.46519360967700
C         8.77491565249704   10.45065695268624   19.58259343887642
H         9.44869910303289   10.14557095230186   20.38210670858305
H         8.57480676057629    9.57426614085117   18.96844552273224
H         7.84040761861684   10.78077248278955   20.02624079783224
C        15.69068931666083   12.67309895450318   15.33299791891495
H        16.30993660990115   13.36331013553594   14.76327463041027
H        16.32750699398668   11.92020284342892   15.79297630373972
H        15.18684432159723   13.23124900072458   16.12455249095133
C        15.40422124692586   11.22833637765680   13.31493376796118
H        14.70487250441388   10.73853047642390   12.64235239600930
H        16.05064251481890   10.47823486468016   13.76092989618304
H        16.03343601894853   11.90385358017036   12.74250596373295
C        11.25031167228877   16.85634467663964   13.05441673217187
C        10.04396023449576   16.92298430118107   12.36536070334343
H         9.28673487465672   16.17685388770099   12.55635615177879
C         9.82577517023859   17.92467887441457   11.43709838210435
H         8.88837127122945   17.96600330130090   10.90175175972214
C        10.80587117602985   18.87173329123087   11.19087524858572
H        10.63307224378103   19.65521332470511   10.46799083771873
C        12.01079196742131   18.80831015524392   11.87048445186585
H        12.77949101346979   19.54264450300295   11.67842381074207
C        12.23591283929411   17.80225996802340   12.79278803373390
H        13.17589861729618   17.74834521901450   13.32285059309322
C        11.13535191685143    9.00698031534363   18.36907011106431
C        11.61751598942963    8.81799600386803   19.65916206768375
H        12.13524701812312    9.62703546078736   20.15358228962574
C        11.44446294552520    7.60306197262919   20.29791743844217
H        11.82576929605613    7.46295094156163   21.29895331695518
C        10.78653649851497    6.56750446202392   19.65594106824372
H        10.65063679920671    5.61997981243410   20.15601311714587
C        10.30833929929502    6.74838551022291   18.36881389881140
H         9.79914420307552    5.94096325557909   17.86310343054951
C        10.48594084651742    7.95986656902450   17.72483765299023
H        10.11975968565900    8.10568932759742   16.71922241260994
Cl       13.24075807103207   14.02572036090879   18.00685183259596
Mn       12.30539357122181   13.35700826673993   16.38455158517487
N        12.81746817651313   13.71474053836950   14.48166567929980
N        10.90150577179024   14.59065862326844   16.02476806289826
N        10.81052638166484   12.60798841481653   17.34843252688021
N        12.78821903716542   11.46855213490637   16.00428708229849

