92
CSD_code = UGIPEG | q = 0 | S = 0 | Stoichiometry = C43H44N4Ni | MND = 4
Ni       18.45025678995833    5.07154612128965    6.06085048781874
N        16.57190097340759    5.16535587124199    6.19558489705525
N        18.67786869754625    4.09962066308231    7.65958935781344
N        20.27485980046268    5.09274750710132    5.74979261197086
N        18.43730305006332    6.02140864966686    4.47397517433169
C        15.72822383264691    5.78654963849728    5.28699333578699
C        14.38812023518719    5.63918542529359    5.73132563373150
C        14.43555805171848    4.93195924067504    6.90068227985777
C        15.79830258994802    4.65338443684377    7.15811421404523
C        16.24633601002503    3.87409355787406    8.35803538558201
C        17.72492544837665    3.66312586912225    8.48951738381464
C        18.29531490853747    2.94561649546982    9.56665752972027
C        19.64948184995450    2.95214810433465    9.37627230923255
C        19.89195335207365    3.68005906203251    8.18197347766421
C        21.16073710581184    3.92155954210210    7.64395672403898
C        21.34604224433366    4.63598502774596    6.46058832097026
C        22.53970694032799    5.05272680164026    5.79037679923219
C        22.14732577708932    5.75534225537944    4.66473564149132
C        20.72071947718036    5.75387956776205    4.65866588566781
C        19.62385813987490    6.25581505156021    3.86912315214654
C        19.39172508402310    6.93483916191184    2.63787472417015
C        18.02470617281549    7.12779173260515    2.54180850307954
C        17.43616766057968    6.53837338291787    3.70390907507924
C        16.10480160522495    6.43248639278799    4.10496926927749
C        15.76414253889193    4.62495116982270    9.61713068811500
H        16.23460469426081    5.60462338018068    9.66425602403170
H        16.02460990098222    4.07087964887408   10.51428320738676
H        14.68645363069403    4.75782127707602    9.59231826338801
C        15.57584611600724    2.48541501809766    8.29235673802603
C        23.92971348696038    4.78437207092027    6.25306644572875
C        23.06430505215111    6.44765525418178    3.71302690940104
C        23.07038052899811    7.97262233466014    3.92562645684524
C        23.90418131800027    8.65315322464009    2.84257908881442
C        23.61369739947739    8.32260741850033    5.30797912667806
C        20.36741334578631    7.29931646569473    1.57063460718990
C        20.32172093179447    6.30696740481762    0.39391583834636
H        19.30394901779857    6.30012492622513   -0.01031143355114
C        21.28053207338675    6.75818707937848   -0.70486098722224
C        20.66270720412055    4.89188985848354    0.85202496506420
H        20.56832931889541    4.19277639897275    0.02371400384300
H        19.99430759443432    4.57386200870281    1.64849070609403
H        21.68414582962015    4.84159971334094    1.22348291747039
C        17.30039044597022    7.82525628893065    1.44381684305355
C        22.31289726751283    3.37466261059985    8.39112498651226
C        22.78138628972484    4.01750344560802    9.53146145223843
H        22.30629354027198    4.93192154798288    9.85629415728391
C        23.84803742698085    3.49248644094476   10.23886696797839
H        24.20842560350175    4.00012127095558   11.12174615969896
C        24.44840961184508    2.31666027290956    9.82102187222559
H        25.27854607719611    1.90581091042425   10.37637347978534
C        23.97768997295491    1.66602669927554    8.69280541571273
H        24.43808206711956    0.74391294152952    8.36902497255693
C        22.91585674572456    2.19191156628661    7.97903049313057
H        22.54095440302886    1.68473508893352    7.10182227128089
C        15.01515767779759    6.99251877667885    3.27725161837611
C        14.51300809434944    6.27232053361988    2.19979249016837
C        13.47816761421029    6.78720809200947    1.43980801052922
C        12.93663944321477    8.02388874120508    1.74803473995548
C        13.42906293715269    8.74256553020329    2.82448998791699
C        14.46072308593860    8.22863661520757    3.58962069944042
H        13.52058453622775    6.01632144067028    5.22543498380336
H        13.60167122766835    4.64052783340280    7.50926698584262
H        17.76282863760305    2.48436539137748   10.37560300560913
H        20.40202366871991    2.50148269683300    9.99374422538169
H        22.03881637108328    8.33651983391153    3.86399891239124
H        14.93440388002585    5.30508709650959    1.96730062119254
H        13.09088800483716    6.22026965906560    0.60573678286396
H        12.12927784465257    8.42499956124315    1.15336028611763
H        13.00544237107858    9.70503519988874    3.07196837323183
H        14.84593102676793    8.78345203377911    4.43284597625776
H        15.91589573538428    1.95429818578895    7.40599022607150
H        24.04823626706979    5.06738972640584    7.29769058805515
H        24.08061683806392    6.07245190767319    3.84619830058045
H        24.93270405011183    8.29827538291275    2.87730847606813
H        23.02784532073371    7.83538932432386    6.08344412268743
H        21.37464460985561    7.32791340955623    1.96939028289020
H        22.30424601443965    6.77355871644169   -0.33476933608091
H        17.99933325213221    8.36456633560549    0.80939266682399
H        14.49539869478524    2.58568035418438    8.24411510073734
H        24.16602038785890    3.72356883500389    6.17046988488879
H        22.77503294685012    6.21835662633337    2.68669756828188
H        23.90988653018231    9.73101186046581    2.98851323310100
H        24.64966021861071    8.00307170038928    5.40434971346024
H        20.13356453485575    8.29902547668806    1.19310808750228
H        21.23608957904905    6.07881441992927   -1.55322067379040
H        16.75431129642541    7.11369428857127    0.82411537258049
H        15.83086267555201    1.89716095620657    9.16906872735918
H        24.65023269813353    5.34329357714820    5.66297131419942
H        23.50525240816519    8.44756752599918    1.85117258536556
H        23.57197879914865    9.39751265492216    5.46991123853840
H        21.02760488789743    7.75750808024996   -1.05348337945735
H        16.57725060210880    8.53245832370536    1.84623339037487

