39
CSD_code = UGIVAH | q = 0 | S = 0 | Stoichiometry = C13H21Cl2ReS2 | MND = 9
Re        0.97120786932629    8.37387927911237    9.21770509112773
Cl       -0.74280429315952    9.49824467645270    8.53912324545106
Cl        0.11398916802198    7.99808519756986   11.28916243478347
S         2.17776824624457    8.70866029815916    7.23581671862527
S         2.92866960171153    8.88026494002093   10.29841450178850
C         1.26346157398959    6.13874930916828    8.94881720096068
C        -0.09250305825144    6.05141037560773    8.33480515366364
C        -0.92551676077859    5.41904282864913    9.22842360923501
C        -0.17963892912008    5.04615760135004   10.40681982559022
C         1.11526387318965    5.45977763478125   10.26387905974573
C         2.45490550684423    5.66133959778788    8.13313902815816
C         2.34005901035533    4.17025864872972    7.81259691898639
C        -0.41748760690237    6.35429067543120    6.90466104400507
C        -2.37105452026774    5.12095447464547    9.04993499557596
C        -0.80273635264998    4.36824631453844   11.57497639772562
C         2.24157236033535    5.32373654523008   11.22614686174824
C         3.44243681157464    9.90330580914299    7.80212186949316
C         4.15200449575886    9.33498186913986    9.00797115467823
H         3.37176899079237    5.84452763296873    8.69720879831167
H         2.51325046642119    6.21709567473571    7.19680702285100
H         2.29525840523910    3.57647007594020    8.72153564418097
H         3.20099545291486    3.85145681814597    7.23001471141272
H         1.44046663631106    3.97698219061575    7.23562816574012
H         0.39558437868428    6.89201471097079    6.42361550211465
H        -1.31944035267656    6.95932964036581    6.82790619236477
H        -0.59248320217590    5.42518305367354    6.36069176858317
H        -2.53097766609595    4.04373381089742    8.99078390948422
H        -2.75641781925437    5.57940969487189    8.14390725780202
H        -2.93671132267053    5.49239936950404    9.90372746254659
H        -0.05030179989370    3.98817420444404   12.25953959786559
H        -1.43146242375363    3.54203008506308   11.24701951784426
H        -1.43109104231280    5.07786949857555   12.11435391037534
H         2.74966955848018    6.28296497246379   11.33827502208479
H         2.97269413891500    4.59711722283271   10.86846636423095
H         1.88526998491822    5.00853305265210   12.20232002182026
H         4.12715588244750   10.05022616327020    6.96761141097962
H         2.94084537538026   10.84202615034464    8.04330667898896
H         4.82772690629175   10.06044088486452    9.46046892285768
H         4.70020245581417    8.42862901728355    8.74789700621784

