57
CSD_code = UGOCOJ | q = 0 | S = 0 | Stoichiometry = C26H24ClNNiO2P2 | MND = 4
Ni        8.08352500402093    9.17183773772994    2.41170466407330
Cl        8.49895459724033   10.24962050209957    0.53249430031900
P         8.69656307266136    9.38539718231186    4.59118641646662
P         9.51598163715435    7.51567438900390    2.21704899120437
O         5.95396863205899    9.26392676979055    2.24822648645354
O         6.58084971552907   11.27765186783456    2.80505001134277
N         6.75054251642966   10.14611240013003    2.48390405082233
C         9.78686731193059    7.92410806007786    4.93147178901733
H        10.40553689786017    8.11155720662445    5.81444708928046
H         9.14674104969382    7.05537847355474    5.11797314234347
C        10.64067862097143    7.66919555603259    3.69252380459874
H        11.24332764397474    6.76388836604380    3.80287600454932
H        11.31165003923618    8.51620885288806    3.52011056195237
C         9.90337732992548   10.74225411010139    4.73147653205927
C        10.25015772484261   11.43974065119872    3.58017540115151
H         9.76737756276509   11.18994558270865    2.63740894771671
C        11.19338283002796   12.45024912284427    3.64350875812243
H        11.45974685477572   12.99226687221594    2.74874015542025
C        11.78561259728983   12.76671108560534    4.85467750158402
H        12.52009730083408   13.55680670420497    4.90714100658973
C        11.43337834199399   12.07729875917090    6.00564230329543
H        11.89228211117513   12.33229277179923    6.94984561815520
C        10.49329925807843   11.06584239333620    5.94931353293972
H        10.20733232889278   10.53367367190274    6.84677634538599
C         7.71769065818845    9.61654387439375    6.10185614330406
C         7.55597976001020    8.65160606232520    7.08839167219672
H         8.05108984718191    7.69524530231975    7.00740333505260
C         6.75618843534319    8.91822246475293    8.18647923297951
H         6.63780934815345    8.16877576435405    8.95549535798051
C         6.10744208062134   10.13598832063026    8.30033467823281
H         5.48411734504564   10.33638219182979    9.15891463413669
C         6.25157958682413   11.09421763556106    7.30860774637438
H         5.73855525373774   12.04060868902207    7.39024280733863
C         7.04837323545950   10.83543813263925    6.21091117036029
H         7.16007473932235   11.57300962969585    5.42620937336065
C        10.69690350980582    7.32950235494739    0.85507676220949
C        10.66185377049237    6.25624869440302   -0.02761886019263
H         9.94170367574963    5.46229146011036    0.11280041447837
C        11.54485474255387    6.21022191870314   -1.09194737656253
H        11.51940900289933    5.37156897467119   -1.77255053756976
C        12.44976783555804    7.23896491621963   -1.29225385304757
H        13.13377929353298    7.20044166137740   -2.12715059053283
C        12.46222032941876    8.32827132969971   -0.43543588434813
H        13.14887258204321    9.14399106663599   -0.60653850349544
C        11.58452791651168    8.37938751187955    0.62984349976227
H        11.56449685274040    9.24492735951822    1.27829810479161
C         8.82716608180444    5.85766027407046    2.50585527177026
C         9.61438257796089    4.71815883161425    2.64200208735096
H        10.68892402415996    4.78731747999916    2.54036274320175
C         9.01748951809782    3.49751568766919    2.89565080518420
H         9.62779739249601    2.61174320413602    2.99689359672147
C         7.63892601816905    3.40603318247051    3.01932049031147
H         7.17992691364966    2.44851462668998    3.21676723631100
C         6.85144485554444    4.53747849666595    2.88785459828951
H         5.77801927895268    4.46702788446145    2.98274247530254
C         7.44517823677477    5.76039659366265    2.63026433970311
H         6.83782432186319    6.65455933363224    2.51759361417676

