57
CSD_code = UGODAW | q = 0 | S = 0 | Stoichiometry = C26H24ClNNiO2P2 | MND = 4
Ni        8.26092969138592    8.91258429337882    2.60691578290756
Cl        8.05012085677196    8.37928888323702    0.60064583909047
P         8.86420494837271    9.20216045191482    4.61804594559106
P         9.79741283513473    7.46561838076904    2.39499225871388
C         9.87122707105299    7.72972345235259    5.12211169422186
H        10.40399998838201    7.93007408822972    6.05590554779467
H         9.18498725512510    6.89040630660888    5.27426090459608
C        10.81954797612230    7.41946918293905    3.97103889704873
H        11.30321521841347    6.44669343623398    4.09070917025958
H        11.59443552607624    8.18859548062610    3.91386742604840
C        10.13807424316860   10.49867199625846    4.54947683304032
C        10.44008015781215   11.03788910249136    3.30284074013788
H         9.87053328938719   10.71552495083665    2.42712292251223
C        11.43757057014897   11.98858219513437    3.18097405454060
H        11.67165208239396   12.40604479389300    2.21297850888383
C        12.13067033348335   12.40517249151871    4.30606834988356
H        12.90958103193623   13.14771461378591    4.21500007658363
C        11.82246181309972   11.87958310719281    5.55196672887141
H        12.35974523540487   12.21515668594966    6.42695227485649
C        10.82783938545304   10.92734718516271    5.67811633300490
H        10.57721841073951   10.52032050758736    6.64845158151678
C         7.87743332041441    9.66205792586747    6.06377606530482
C         7.48584715058489    8.74401642546910    7.03116190572301
H         7.81095706971034    7.71579777135322    6.96979422869781
C         6.67110162743621    9.14966521520430    8.07320170869537
H         6.37120737593197    8.43669504168437    8.82724842985966
C         6.23145629688241   10.46095646152707    8.14583645374524
H         5.59056359310128   10.77004553376330    8.95803967349164
C         6.60164375120894   11.37306236665443    7.16991785675426
H         6.24726641388242   12.39180886650465    7.21788449954852
C         7.41741880911590   10.97577363075983    6.12853893768302
H         7.69994378223005   11.67469694944089    5.35191353512627
C        11.03022136142874    7.39709212252107    1.07236666296083
C        10.79227194912660    6.60534759741993   -0.04761784696404
H         9.88968336931430    6.01383301936340   -0.09881262580671
C        11.69857001450331    6.59493426880656   -1.09080899620853
H        11.51252968629991    5.97685837129697   -1.95637980933979
C        12.83705121128182    7.38290666767300   -1.03246832329781
H        13.54259210415925    7.37517768359199   -1.85002226637757
C        13.06163484657438    8.19442055739158    0.06723332681746
H        13.93850182050923    8.82432373045886    0.10518833000156
C        12.15881698421338    8.20924847836203    1.11491672037047
H        12.32709320847875    8.86573502719008    1.95787736948766
C         9.05895953280036    5.81181079477949    2.47234035069543
C         9.83711070406863    4.66405438393556    2.35155901498861
H        10.89659261071446    4.74901836945431    2.14776215956078
C         9.24687802753486    3.42090453276747    2.47989999887403
H         9.84678471026678    2.52808380560824    2.37870384881845
C         7.88805615284961    3.31842160585773    2.73828188092864
H         7.43315084722218    2.34362956974659    2.83562052157847
C         7.11524800841461    4.46011554807492    2.86989547046652
H         6.05784182675957    4.38041894529718    3.07232142490690
C         7.69823299711914    5.70825487899692    2.73751373861601
H         7.09681421615332    6.61040624580289    2.82929771854014
O         6.05569190566171    8.72348951813334    3.46106990945327
O         6.92894305030834   10.46607079132647    2.66607936086149
N         5.92818174311996    9.92334571142182    3.17102689455892

