50
CSD_code = UGOFEC | q = 0 | S = 0 | Stoichiometry = C15H26N4S4Zn | MND = 5
Zn        7.17401635433755    4.43109773858285    3.17447777048977
S         4.74015278075527    4.24382710966811    2.70184972230950
S         6.91003706694789    3.38513376552703    0.91054949086041
S         9.38759263891857    5.54183920532210    3.19349463513242
S         7.35144591127198    5.80575309648755    5.29883276425034
N         4.34834188960204    3.15657862920167    0.33083826375506
N         9.69499117690510    7.01135096565818    5.36184753840159
N         7.51451982150121    2.59498559679288    4.20643009596720
N         7.44166263114068    1.09590835167713    5.80958655672218
C         5.24908914681397    3.55791855617164    1.22659302250130
C         4.74929801806977    2.54731382954260   -0.92191606514146
H         3.95341934219759    1.86673141499031   -1.23301041313819
H         5.66124143970490    1.97098528589304   -0.75009596329800
C         5.00687319799922    3.59677632869850   -1.99897312444833
H         5.28259417706110    3.11058054984036   -2.93037671606265
H         5.82201524661243    4.24513255868853   -1.68982224763381
H         4.12007474721611    4.20386132466060   -2.16730327006706
C         2.92769293600718    3.33436686522182    0.55328819281786
H         2.44895175138670    3.46381243640698   -0.42001545377195
H         2.77995881426575    4.24148389883027    1.14400324458694
C         2.32201442514421    2.14426467193976    1.29115474450849
H         1.25309599466645    2.29205762148056    1.41558569601619
H         2.77866408267909    2.05251359456748    2.27283124013223
H         2.48806281166455    1.22198265068371    0.73850872640975
C         8.88527481327431    6.19923872696391    4.68368760254156
C         9.28139979314667    7.62134648450191    6.60925119948081
H         8.20152538862548    7.78361881512828    6.57402589683795
H         9.78255610911566    8.58818633999383    6.69372774293486
C         9.62286372966026    6.73770456777035    7.80520216505905
H         9.32266811389973    7.22973116599369    8.72591280324875
H        10.69134260947549    6.53713785999863    7.84511546195232
H         9.09158466415642    5.79333516945268    7.72372276136925
C        11.01650715695066    7.34642995350451    4.86922828944555
H        11.41826317841648    6.48069778290188    4.33778820905927
H        11.65159318724727    7.55738096484210    5.73271180088115
C        10.97688600695962    8.54732857680384    3.92898458785895
H        11.98256768452434    8.79203096230008    3.59943609258653
H        10.54842765399071    9.41427815467040    4.42718783192464
H        10.37286519979384    8.30977683317449    3.05775210805250
C         7.12359928410082    2.35233964941444    5.43119109559443
H         6.61805045216010    3.06105923854520    6.05774788325879
C         8.11163687810139    1.45559124598079    3.75706104473642
H         8.51654406925955    1.40061759589704    2.76670169577111
C         8.07513490706316    0.51604371669229    4.73930630706582
H         8.44114053999087   -0.48820574544920    4.75569212706612
C         7.15771580060254    0.54689855267860    7.05700097783302
H         6.63690266468160    1.23462197294914    7.70900933863395
C         7.47380740589082   -0.67826862310306    7.44414755853052
H         7.99192532059583   -1.37675303240626    6.81154632222605
H         7.21541098548830   -1.02132297575071    8.42860264474131

