17
CSD_code = UGOGUS | q = 0 | S = 0 | Stoichiometry = C5H9AuIN | MND = 2
Au        3.76921510570732    5.16294876011574    2.61246401415203
I         2.28432192556759    6.47549358157560    4.17937899148685
C         4.89639751819441    4.18041711143468    1.43654455002792
N         5.59619636861514    3.59263715284395    0.72436830766151
C         6.45225939034796    2.87889288112560   -0.13641240193354
C         5.58654474953735    1.96428890191247   -1.00694907125173
H         5.02658794672492    1.26569611955829   -0.38919098753958
H         6.22094977346026    1.39962433318116   -1.68435191278819
H         4.88246637773087    2.54960341127241   -1.59430268384921
C         7.21055032034373    3.89729794406622   -0.99198782382871
H         7.78860940994198    4.57034284522958   -0.36260154839061
H         6.51780749006095    4.48810999186135   -1.58718224568533
H         7.88946300441663    3.37668606367294   -1.66144244346740
C         7.41469447691131    2.06380126377661    0.73161903764249
H         8.00311194465522    2.71977849939536    1.36949030760208
H         8.08986085058739    1.49901925291657    0.09486976985140
H         6.86536334719659    1.36796188606162    1.36198614030957

