86
CSD_code = UGOGUT | q = 0 | S = 0 | Stoichiometry = C37H45ClN2Ni | MND = 7
Ni       -1.19460715344473   12.21735959353208   12.53261269175569
Cl       -1.16903467429888   10.36950267412787   11.57744824365156
N        -3.44633699849296   13.32439319362903   10.91568012839260
N        -1.60858631887079   13.13931545957164    9.82391449682563
C        -0.02947211247521   11.57131255673524   14.15964233946064
C         0.30927642523129   12.87897058809296   13.76852145775269
H         1.28180740505730   13.19194384571864   13.41712733102776
C        -0.84485483977625   13.69027397531850   13.87344721480243
H        -0.85293275709828   14.76525273967765   13.76041341133590
C        -1.83377893865791   12.95745893763666   14.65143451218271
C        -3.03339985028896   13.32683056330239   15.24789227529351
H        -3.41999320671867   14.32988919498758   15.14226403079050
C        -3.71825073397208   12.38721657214169   15.99718512829119
H        -4.64498498936483   12.66637104723163   16.47709521796452
C        -3.23071476050266   11.09352967158567   16.15419864066699
H        -3.78824255772926   10.38621570602374   16.75099865221269
C        -2.03920688518578   10.70059229755833   15.56976063628779
H        -1.66547146833143    9.69478414254667   15.69642329843147
C        -1.33029248533803   11.63167970191921   14.82002328043098
C         0.90710482619160   10.41186803353566   14.27471525394980
H         1.83722175243622   10.61552702080592   13.74716435279087
H         0.46183124040449    9.51085527810531   13.85392642309910
H         1.12752782826323   10.22420920680729   15.32775301102040
C        -2.13747121040237   13.02494895939033   11.06511636996023
C        -3.73067720843197   13.61181969246868    9.60644379303911
H        -4.71945505436945   13.86321869559150    9.28344402861197
C        -2.57230136435148   13.49436635306922    8.91979748220747
H        -2.35772633664536   13.63374698562388    7.88072306943684
C        -4.40213987915383   13.44090895833066   11.96434692791523
C        -5.07903422023610   12.30556918683288   12.40978027887008
C        -6.02807398412951   12.46660313904891   13.41161409485809
H        -6.56203756738207   11.60525436401500   13.78085961940780
C        -6.30482454206973   13.71386950691725   13.93397975035344
H        -7.05231591793588   13.82173060958695   14.70622672681555
C        -5.63308993458985   14.82849527351158   13.46857156575408
H        -5.86667956251049   15.79871121947068   13.87947408876308
C        -4.66377065538401   14.71324826691636   12.48208962243588
C        -4.82732793268738   10.94403629672560   11.81136489499549
H        -4.02972275387363   11.01468923953663   11.06655103902033
C        -4.34699715662523    9.96829555174295   12.88361022133922
H        -3.43377367828795   10.35239952544993   13.33431601282255
H        -4.12205899815573    9.00603566090811   12.43185681640429
H        -5.08977113084001    9.83021971601346   13.66513170437667
C        -6.08897781239219   10.42877733130706   11.11462236659350
H        -6.89675815761404   10.28468774605335   11.82797463321101
H        -5.88065923912827    9.47600427439476   10.63440573598657
H        -6.42411535962162   11.13284332497452   10.35485534152656
C        -3.94971339633008   15.94195144449177   11.96418826217310
H        -3.11321885629202   15.62955696353457   11.33208133621360
C        -3.37238197082295   16.79055461750695   13.09804040469175
H        -4.15883159922137   17.23555351695896   13.70191647467599
H        -2.76781220717158   17.59600225552303   12.68562566668691
H        -2.74396690009711   16.18324402217955   13.74431730179687
C        -4.90762428742456   16.77706641877325   11.10922582969642
H        -5.28830728512738   16.19366869944051   10.27388949209258
H        -4.39383826238487   17.65016015883589   10.71298109160903
H        -5.75378273109663   17.11420310339952   11.70318354275194
C        -0.22661089256522   12.98009292492629    9.51266977074879
C         0.67168453932043   13.96398222603315    9.95186755244939
C         2.01530595565613   13.80048183198038    9.64966594585669
H         2.73384679110815   14.53649113439722    9.97167698658994
C         2.45129552610265   12.70389583835208    8.92906574848099
H         3.50298990537503   12.58974588159266    8.71064446233507
C         1.54618563664914   11.76986558596433    8.47008059785425
H         1.89802455559000   10.93540403983827    7.88506098272725
C         0.18950131013331   11.88785973941930    8.74732083485607
C         0.16857191010716   15.21388959986774   10.64418630523834
H        -0.65884109427185   14.93110344877300   11.30406014935649
C         1.22084203067174   15.91045162910977   11.50473090450070
H         1.70141208510931   15.20447459686881   12.17640253656509
H         0.74601311105886   16.68394667711963   12.10549261161633
H         1.98224628378558   16.38739366048296   10.89185522112295
C        -0.36104340478714   16.19260329454879    9.58881388904310
H         0.43404289859369   16.46248746037128    8.89642017180441
H        -0.72351807213801   17.09986906668272   10.06794184137642
H        -1.17785476246257   15.75649413686417    9.01817257529842
C        -0.78440332653238   10.89065205402715    8.16602338125300
H        -1.76053265603910   11.02810234666590    8.63711667366030
C        -0.36275388329973    9.44539393394238    8.42849123849465
H         0.57870028666698    9.20563005596931    7.94217908116824
H        -1.12500150744064    8.77159378367819    8.04461158924697
H        -0.27037345166301    9.28617592144021    9.49852629549325
C        -0.91748073821608   11.13833108292874    6.65875159426584
H        -1.20778164788581   12.16583323560126    6.44766953789717
H        -1.66864588160974   10.47472563505706    6.23697007416460
H         0.02940689873835   10.94803609838820    6.15868383102458

