85
CSD_code = UGOPOX | q = 0 | S = 0 | Stoichiometry = C40H32CdN6O6 | MND = 6
C         4.39673552197628    0.24266409777910   15.37377472157283
C         4.89162656564303   -0.83198394462088   16.10519289476302
H         4.94620403998978   -1.81312793731368   15.65667249169948
C         5.29778212951287   -0.57974683685889   17.39920020632422
H         5.68938881104645   -1.38715899149938   17.99930245587090
C         5.21557639241186    0.69580636207632   17.96412374316385
H         5.54332675795766    0.84148223696478   18.98285643232441
C         4.72238978591912    1.77372372918250   17.25505666385806
H         4.65369401600050    2.75704397881799   17.69549132181519
C         4.31822510907574    1.52970586686824   15.95277746225656
C         3.56683531850314    1.54089004879322   13.87869633627400
C         3.01816979519634    2.14724846954919   12.69000058914409
C         2.51987279168048    1.41058081328732   11.61943755234084
H         2.48745316625943    0.33368755517982   11.69008124268530
C         2.07498465282392    2.06034305339818   10.48351245473937
H         1.70002374539904    1.48667992605737    9.65084876841906
C         2.12084980902853    3.44500515894252   10.41256031950229
H         1.78097885789030    3.95138054035499    9.52075626177855
C         2.57892741437162    4.18956543068647   11.48407772106247
H         2.59473105857099    5.26968748754122   11.43495705737439
C         3.01915897975755    3.55336708023780   12.63923531975878
C         2.07881783550775    3.88814354071947   15.64719169819392
C         1.64218433258959    4.57898109641428   16.74013465509556
H         2.23884933891601    5.15862568999666   17.41423407005576
C         0.24326009585410    4.36972296802566   16.80251293352582
H        -0.43325860466840    4.76009245998219   17.53393542011560
C        -0.06081369856345    3.57097265527435   15.74441347489333
H        -0.98739779355786    3.15898943571468   15.39806824289459
C         3.45018596713427    3.72685409196003   15.04008553935523
H         4.17840164613017    4.24854103186272   15.67847203879216
C         2.58793732607399   -2.73470266119512   12.79227452637001
C         1.32774717737410   -3.58818956213675   12.81975218307264
H         1.42927877521197   -4.37678825689385   13.55880235315026
H         1.15564719050916   -4.01181678505714   11.83409945148483
H         0.48136812704083   -2.95411013081818   13.07493748399651
Cd        4.69378821100764   -1.38907847257061   12.68562053309326
N         3.80269355536525    2.33405713114238   14.96840338486630
N         3.92628257410342    0.29598757375321   14.08501024922612
N         3.53434605560048    4.27648165202635   13.70246432635752
H         3.37005079780125    5.27180568608036   13.65815231373323
O         2.72356303356573   -1.90083002691679   11.86580608246240
O         3.43474533436323   -2.87389428313191   13.69804778033792
O         1.04021486813502    3.27572973009278   15.03977971404718
C         4.99089814404316    0.24303872554355    9.99772074544832
C         4.49615871999196   -0.83148881261209    9.26602671969585
H         4.44142921914579   -1.81269262598851    9.71440030705352
C         4.09039323594427   -0.57906716386619    7.97193156938163
H         3.69898464831278   -1.38639625684680    7.37159076802535
C         4.17279955580838    0.69655774843782    7.40719959653090
H         3.84541237938778    0.84236734612232    6.38836926190722
C         4.66577527009907    1.77437174806366    8.11656797843720
H         4.73461302563011    2.75775351899254    7.67629743873582
C         5.06956076397714    1.53016355516286    9.41892859775413
C         5.82058548475865    1.54101241071701   11.49314511998318
C         6.36933579410102    2.14714655338987   12.68191365004436
C         6.86770135463230    1.41027456644806   13.75230265214410
H         6.89992949032695    0.33338380823739   13.68153788378124
C         7.31296948089386    2.05983477550867   14.88819312339038
H         7.68803476100554    1.48601003854831   15.72069664231060
C         7.26741943129849    3.44449797681710   14.95928084139334
H         7.60766624378178    3.95072317308703   15.85102680535247
C         6.80922291776126    4.18925155547942   13.88794664842927
H         6.79367203724055    5.26937301713997   13.93717322387478
C         6.36861220285382    3.55325988832499   12.73282211829594
C         7.30865623550618    3.88853668171541    9.72476788028239
C         7.74432377395218    4.57508976039205    8.62874992362859
H         7.14681622061759    5.15076974337790    7.95199078029132
C         9.14359129808083    4.36778548834574    8.56748832489924
H         9.81960137567371    4.75600502313726    7.83443363828337
C         9.44879154704453    3.57419866395090    9.62916144083404
H        10.37600283687084    3.16538193462155    9.97756486235320
C         5.93738854737364    3.72720939279990   10.33207617807066
H         5.20907171639937    4.24887387872573    9.69378172928895
C         6.79963525989279   -2.73478878931888   12.57903040928415
C         8.05976842710785   -3.58837292091905   12.55166802441560
H         7.95794030853558   -4.37744867954767   11.81316770312411
H         8.23222495891191   -4.01133539476797   13.53754400389862
H         8.90607955397260   -2.95450884442187   12.29571340021828
N         5.58491599600234    2.33435104940552   10.40352760996466
N         5.46113334078723    0.29615204849919   11.28657555556170
N         5.85334291678225    4.27658774119237   11.66976410742117
H         6.01783464108791    5.27187573198039   11.71422148211167
O         6.66399729237222   -1.90092213406545   13.50549687003399
O         5.95299087548749   -2.87376554049326   11.67307175836256
O         8.34819185203387    3.28063092893640   10.33512215385766

