35
CSD_code = UGOTUG | q = 0 | S = 0 | Stoichiometry = C12H17OReS3Se | MND = 5
Re        4.35817251250277    1.24247685329211    3.61279513130910
Se        4.18080417854541    3.51883287590623    4.34756391155971
S         2.06666284927776    1.06379104937560    3.77554486993800
S         4.21249186324191   -1.31384010180553    3.12999072773317
S         5.39771243465146    0.63771767270589    5.57398055637494
O         5.18921805150080    1.45222060933994    2.17929781572864
C         2.07710586171727    0.17413131509805    1.17408817804290
C         0.16423017175620   -0.51478963692347    2.65021129841929
C         1.67074102992690   -0.28081277516530    2.57111810943425
C         2.40576744188266   -1.55805420158608    2.97428059733824
C         4.53055976459659   -1.88563443371931    4.84496108002844
C         5.73633208308644   -1.14892378682045    5.38924220195406
C         5.94618708539202    3.92765389479456    5.00129993892174
C         6.11007611164272    4.77204431077542    6.09191283265752
C         7.38430414444313    5.06520460202711    6.54416590038967
C         8.49086575759944    4.52378380720057    5.91120051970324
C         8.32356376245334    3.69275351419578    4.81461382430748
C         7.05476880731682    3.39741681169952    4.35329837636007
H         1.82711894616273   -0.59043756311273    0.43979742091628
H         3.15038725469620    0.37470428604623    1.12291361543430
H         1.55435085681925    1.09263367766050    0.91751482408673
H        -0.13349665375383   -1.29881027900930    1.95613895328444
H        -0.13190993866539   -0.80402941949993    3.65688615222900
H        -0.36178381640170    0.40053325049231    2.39087102377586
H         2.03839185864864   -1.93092534354768    3.93029709872240
H         2.27088616582488   -2.32568013706407    2.21039837755704
H         4.70908620215124   -2.96150096632676    4.80197873584569
H         3.64689266631605   -1.67633070341049    5.45162936025855
H         5.99182827785543   -1.51081432501317    6.38638743143977
H         6.60005378435627   -1.26320365871274    4.73178581552640
H         5.23872399703263    5.18473232425642    6.57966127570427
H         7.51370313629962    5.71572955336639    7.39681795163335
H         9.48386874469681    4.75007888304235    6.27085013706340
H         9.18579127053588    3.27438404703163    4.31617453014762
H         6.91144333588538    2.75016399341782    3.49413142618117

