35
CSD_code = UGOVES | q = 0 | S = 0 | Stoichiometry = C12H17ReS5 | MND = 5
Re        3.21720302861583    1.18070989152203    9.16241119918715
S         1.13441833810153    1.60866894450049    8.79666702915451
S         4.57014716015260    0.57421100540536    7.40023762128827
C         4.20048513618680   -1.18844063501427    7.07887852670351
C         4.16373161224311   -1.96963950750594    8.37429825200298
S         2.85954988083862   -1.24318703964531    9.44050744804723
C         3.52827209238246   -1.56117446007747   11.11473322080212
C         3.13514623122609   -0.43270763566220   12.06062758331286
C         1.62127161393157   -0.31914101621485   12.18752810471704
C         3.78954874728843   -0.64524137393588   13.42268725017533
S         3.80573712512513    1.15549401172076   11.38082818479407
S         4.16411027384511    3.29431602091439    9.10526656462565
C         4.39793219922884    3.74332422175581    7.41797409832876
C         3.41528076000507    3.48601105165108    6.46737776996309
C         3.60871716227312    3.88347758424251    5.15887030601548
C         4.77496470772341    4.53745897999703    4.79303349459243
C         5.74717141985953    4.80352543875798    5.74409862577332
C         5.56184632227763    4.41321726149669    7.05679571868232
H         4.99286739917180   -1.55484117755558    6.42487779196999
H         3.24327297766689   -1.24348709202914    6.55784698150273
H         5.11851207909326   -1.89587236919719    8.89719940491203
H         3.90486476611505   -3.01605465224692    8.20795927437850
H         3.11235317419969   -2.51442126565134   11.44486224054119
H         4.61375587555427   -1.63571006619072   11.03952224167747
H         1.36641307876785    0.49414332362299   12.86215359629656
H         1.19991889925963   -1.24506486661529   12.57585692990435
H         1.17074518682696   -0.10535639494318   11.21665476112769
H         3.54922532024412    0.18860304807753   14.07699258141515
H         3.42638100634509   -1.56458248071124   13.87866997153274
H         4.87179438024810   -0.70158001722664   13.32679856759639
H         2.51003939759361    2.97283613734929    6.76691405320625
H         2.84667979159917    3.68046868187484    4.42113910073617
H         4.92567448150839    4.84017230077779    3.76736953793820
H         6.65522775106802    5.31558047494263    5.46151864861558
H         6.31094062348420    4.61488367191239    7.80694331853306

