35
CSD_code = UGOVAO | q = 0 | S = 0 | Stoichiometry = C12H17OReS4 | MND = 5
Re        3.15209703928569    2.45143731264428    1.09139503591843
S         3.32464868020381    1.80292261173311    3.31978036370590
S         2.15982301901228    0.43163263974427    0.61119255195597
S         3.32265288354723    2.75006982418462   -1.48899275089274
S         5.44755875137301    2.34913710147715    0.99137156100712
O         2.32332966006321    3.89592679826626    1.21876711337579
C         7.36275499495455    3.30473052568198   -0.68866318949847
C         5.42937363700503    4.83279585018314   -0.19594077740603
C         5.85272945559232    3.39664678438142   -0.48149878778923
C         5.13882218572777    2.84287371766208   -1.71305887668641
C         2.96536099479626    1.01354445799713   -1.97246819771117
C         1.77861103531227    0.51126626432401   -1.17663511160274
C         1.72328153692781    1.19629144188413    3.75118505112287
C         1.61432130058657    0.08576602144885    4.57813098435000
C         0.36195548880299   -0.37093366068718    4.94641217111893
C        -0.77730051901059    0.27587895654963    4.49672974116019
C        -0.66359565086698    1.39135844813844    3.68137811974144
C         0.58264379971412    1.85826521132738    3.31060681660352
H         0.68966287347227    2.73231840699906    2.67741237844928
H        -1.55001704799312    1.90137289478540    3.33436007885138
H        -1.75340767767607   -0.08768577423571    4.78206931315813
H         0.27616392693017   -1.23837378413818    5.58424410997734
H         2.50865242166246   -0.41144828998920    4.92047827421050
H         0.91107317574363    1.15962784959702   -1.30857846902856
H         1.51828522551843   -0.50485668594208   -1.47709970071020
H         2.75294538634940    1.01245875400238   -3.04275094346048
H         3.84892051347401    0.40739828203447   -1.76515497284203
H         5.30392187419068    3.49762007109610   -2.57033480347773
H         5.49851973919907    1.84121130913806   -1.94714909461040
H         7.87500586606670    3.66991492550540    0.19746416920692
H         7.66586505898355    3.90799772113476   -1.54242026801972
H         7.66882373178660    2.27441731197015   -0.85788276609893
H         5.94718729322921    5.20148200955361    0.68597952490500
H         5.67197275446853    5.47491898620699   -1.04138227014563
H         4.35585659156600    4.89101570533608   -0.00234637883224

