143
CSD_code = UGUBEE | q = 0 | S = 0 | Stoichiometry = C40H80LaN7O13S2 | MND = 10
La        4.09818216288059   37.14991613221962    7.77693054284501
S         0.35924490015885   34.25012848247869    9.52349106809831
S         7.67363779408340   40.61725960518291    8.78662412162267
O         1.93098590044565   38.05570145533478    7.83057313432637
O         2.45505256466944   35.48870011328630    7.06739562985186
O         6.07879869863944   36.48724226310455    8.78091496062439
C         7.55901799900318   37.56472917037275   12.55643749991001
H         8.09538058961521   38.20128953461963   13.27077862553350
O         2.99653749090395   36.52553908926916    9.81434753900614
C         8.58857430002718   40.54420027716043    5.48090185154885
H         8.98960201144407   40.73362843002627    6.47653277403991
H         8.36175162677009   41.51465575860765    5.03082114204917
O         5.90183210621800   38.43905787308046    6.62827768523229
N         2.15048902556949   36.02683471903627   11.83273114684970
O         4.68668565954081   34.90647148595463    8.59548897452145
O         5.49583444511258   35.38170490733673   10.49096099954094
C         2.48005039960743   37.36046517783296   12.31139079302467
H         3.25973754473372   37.75997851028131   11.66012160391163
H         2.87204307782697   37.26824001430270   13.32513573790279
O         1.64297219096148   39.96904235081292    6.96890169706588
N         5.40828055305419   35.59433646731546    9.30403385676837
N         0.98411034434772   34.05007513828136    6.16495743789128
N         7.34773233196561   39.80500785497352    5.57174325930949
C         6.18654682430526   38.17565115640573   12.23433279300268
H         5.62607306108514   37.44074266533002   11.65396301933869
H         5.64427082411030   38.38048824327717   13.16271741506684
C         5.66099609526932   39.40499012487835   10.23285261774805
C         7.81656218424312   39.04842370277921    7.87266003944064
H         8.87547832358969   38.90721412940492    7.67519138408215
H         7.44715842206353   38.24402780707026    8.50845777147889
C         2.10321949221504   34.33830402956013   10.04284459489289
H         2.22882953235927   33.54566350328223   10.77362895382353
H         2.73182877589192   34.14382689516593    9.17358826172932
C         6.91297609095169   40.53038318172796   12.04009966240603
H         7.24292455037714   41.23076786875691   11.27414450578905
H         7.80431498257089   40.17588907877360   12.56122248238845
C         5.92496442668649   40.56246800257202    9.29152203814531
H         5.70710860909553   41.53379107564643    9.72886518655698
H         5.31081087850491   40.41698040903338    8.40288516178269
C         1.99384693827152   33.61949841808498    5.20999095436426
H         2.77619357248345   34.38120690528353    5.20486758113651
H         1.54320274501233   33.56658493032683    4.21733823689118
C         6.47317686395975   39.87573121106223    4.41077083446921
H         5.74930166359812   39.06473527979323    4.48654336886555
H         7.07017214855864   39.70794092748815    3.51180324206207
C         2.45557728921380   35.70966248689178   10.56919043683919
C         9.65346203379529   39.84154116565470    4.61907475077623
H         9.24534346432015   39.69459022499077    3.61439867026184
C         5.71528992314041   41.20786682007554    4.28941324591476
H         6.40735611787752   41.99247456830382    3.95680672513743
C         1.52341527016333   39.45127220951008   13.30018011987605
H         1.62389292461365   39.06784052942928   14.31387932553839
H         0.69598934135637   40.15606151006212   13.28267594407299
H         2.43355868333994   39.98667183473027   13.04141272179948
C         1.32837332678934   34.98748755287315    7.05955357308533
C         4.62437134152980   41.03987992113161    3.23551018622297
H         3.89921857189068   40.30270045750629    3.57030251743289
H         5.04670580661355   40.70383242535588    2.29103315125958
H         4.10738331194014   41.98191562057557    3.06904458057796
C         1.27667558732268   38.31866786793544   12.30506195585540
H         0.38335760293433   37.76644755015078   12.61990091964888
C        -0.31526541104102   33.41286849041376    6.11423288648375
H        -0.65138157894649   33.18981748037933    7.13117604602047
H        -0.19159933446618   32.46187196178890    5.59225609122620
C         1.52776534106734   35.11939951192433   12.77510937769450
H         0.71793998213358   34.57602126820962   12.27982666889461
H         1.08191405845647   35.73176705082150   13.56222843691074
C         1.03732484139734   38.88177146517499   10.90822151452059
H         1.90406629758998   39.45136032795652   10.57753166702198
H         0.16921597147859   39.53713922365555   10.89948874273450
H         0.87207037716740   38.08511989644764   10.18906864843073
C         4.78763067917503   41.87378060980525   12.37368873477745
H         4.10858111215106   42.28173178154579   13.11909112407748
H         4.24902294122279   41.12836341962446   11.79205901099480
H         5.08500052640219   42.68463595898496   11.71180057768409
O         4.92668753802253   38.48599519928826    9.85713219070429
C         3.80235186009028   32.03438605852529    4.59859908503284
H         4.56416766425438   32.79421600652977    4.75417558534045
H         3.47136463498668   32.08203135319145    3.56318779969706
H         4.24790366453621   31.05790143937616    4.77242412336572
C         3.72869523305483   34.79148778798423   14.01172534118060
H         3.45185819509985   35.52283345345036   14.76894533611672
H         4.29864708827499   35.27695799008601   13.22403107664055
H         4.37058606390688   34.04899110001482   14.47982428576004
C         7.33298978094531   36.19961106922192   13.20147720696543
H         6.81446339697133   35.54827978453422   12.50293647035176
H         6.73531957969003   36.29226529867206   14.10608797346559
H         8.28429067286106   35.74376011076724   13.46462826820664
O         4.98287024990033   36.05372719934750    6.02033407334554
N         6.26222767530027   39.38826928954904   11.43337844540075
O         3.54041553851272   37.56247110653386    5.64497522187504
C        -1.39723644315740   34.23362078027254    5.38696758199768
H        -1.48428062387527   35.21513926090523    5.86261296524471
C        10.88208588611750   40.74141525135788    4.51375605981710
H        11.30721958375553   40.92195534238085    5.49882942968612
H        10.62331729483505   41.70029209750353    4.07082855524891
H        11.64148308865213   40.27194410552235    3.89383202852009
N         2.36658104503801   39.14420160023923    7.44930902924359
C        -2.73411356127354   33.50649124951843    5.51611445148873
H        -3.52382637608199   34.07918248991635    5.03692896255385
H        -2.99930070665157   33.36522471753938    6.56146270975508
H        -2.68267275122196   32.52996578629585    5.03949696616836
C         2.49269423469359   34.11160972227867   13.43158423938235
H         2.83901047164811   33.39745137403316   12.67957457966679
O         3.56653560749475   39.38535310067758    7.63247244048936
C         6.96204247174486   39.07707403028490    6.62438373470712
C         0.33355807825778   35.41088019317037    8.11780428107377
H        -0.69830465404648   35.43270325677618    7.78093705272941
H         0.63224333843662   36.39606651926083    8.47448703494223
C         6.00970903259231   41.26050255632179   13.05101611029663
H         5.66658310114072   40.53536400655673   13.79618879257089
O         4.89425574151562   36.98754848227380    4.12494752087883
N         4.48697242874464   36.87457681196933    5.24993137606589
C         5.10502890017997   41.62235368398321    5.62440224832596
H         4.49130739365435   40.81775793892092    6.02214344151116
H         4.47417366083747   42.49817145614578    5.49229404739224
H         5.87980281011813   41.86966977819699    6.34861092338027
C         6.82347522778798   42.33714925583967   13.76381700657451
H         7.66655851180748   41.89898071995614   14.29262389398580
H         6.20375778619314   42.86439118073157   14.48460723600546
H         7.20624010624617   43.06012108851374   13.04698108533343
C         1.73264825752402   33.34313639554436   14.51045165264422
H         2.37088349740163   32.58262298865783   14.95247642547132
H         0.85633802199635   32.85420677659670   14.09120042552047
H         1.40607123810690   34.01611437456213   15.30058551980028
C        10.03218769462295   38.47546013953093    5.18291877217833
H        10.70401206828281   37.96331015747522    4.49823471048953
H         9.15066424763533   37.85335462242968    5.31941018076896
H        10.54404625406048   38.58158498349461    6.13771126910644
C         3.12203207136804   32.24063509637593    7.00219075318000
H         3.68019930488274   31.32674649678166    7.19264117431347
H         2.28000813628575   32.26872942628413    7.69136264019163
H         3.77242841804009   33.09094036704203    7.19743965167729
C         2.63678827544065   32.26732917782996    5.55633363320774
H         1.89868971323629   31.46724362254405    5.41566231315672
C         8.39202579348851   37.41915907076338   11.28670698657028
H         7.83499665696816   36.84846421667648   10.54826481442560
H         9.31906040466718   36.89289490032149   11.50188491591220
H         8.64206546306051   38.39103684865243   10.86593199099370
C        -1.04879790059313   34.46094537517396    3.91887621280326
H        -0.15339946204679   35.06939104525154    3.82514145925696
H        -1.86186173031589   34.98518799566018    3.42191930886062
H        -0.89377306918456   33.51308828967788    3.40684638257624

