42
CSD_code = UGUBII | q = 0 | S = 0 | Stoichiometry = C20H14HgN2O5 | MND = 5
Hg        5.40164146840432   14.48548508013649   13.82448464623683
C         7.07211168383252   12.64988348611226   12.33673601092469
C         8.02709410231586   13.10154972126030   13.45657273993730
C         9.31982315453420   12.55219974078312   13.49911533798774
H         9.58497634649356   11.83590475100836   12.73752064071008
C        10.17413600268681   12.94076144008457   14.49196178117963
H        11.17490477927698   12.53890504078723   14.56281667281110
C         9.74082369499598   13.88870417949994   15.44254705037933
C        10.56041106011956   14.34517447899285   16.49521822011818
H        11.56182953255121   13.94870457153704   16.57817437996734
C        10.09544945011543   15.27191138374505   17.38623658106611
H        10.72777828779332   15.61894903951106   18.18958857311402
C         8.79446536944811   15.78570760138516   17.26048780974483
H         8.44710929009671   16.52454699685568   17.96667392949811
C         7.96935189898386   15.36418497046174   16.25364029488895
H         6.97235927690831   15.76787870083517   16.13845173688691
C         8.41927996219503   14.40410822829414   15.32436879967316
C         3.84128195812294   16.51231351647395   15.17412996259135
C         2.88637786930664   16.04841472410035   14.06387954810393
C         1.61714256571900   16.64290009958906   13.97751829737628
H         1.37300248151020   17.41408460120271   14.69104119229019
C         0.75332623115096   16.22253551579751   13.00541297140386
H        -0.23136610920340   16.65609799493171   12.90297100601541
C         1.15428875649781   15.20013901055311   12.12128801327572
C         0.31952349847896   14.70500689074324   11.09830402336950
H        -0.66752844746189   15.12979274719043   10.98731545107974
C         0.75395845709016   13.70910518284087   10.26889254602386
H         0.11046689589725   13.33308691655943    9.48763274164771
C         2.04036426944696   13.16705388886819   10.42457563171467
H         2.36779430320455   12.38236707567418    9.75973846126062
C         2.87885933390171   13.62197049466264   11.40526439100485
H         3.87227734727014   13.21179992533466   11.52765010789681
C         2.45759829619081   14.64710575785756   12.27613527008122
N         7.59133447463429   13.98463490039444   14.33129928907168
N         3.29212573888241   15.09468879894487   13.25032765387177
O         4.68609663995879   13.27284126728313   16.03750113101275
H         5.31862065095826   12.73436630369192   16.52281018035771
H         4.49534053354084   14.04036687372343   16.59019090024566
O         5.91756320911099   13.19575573092450   12.33538895541504
O         7.47304884727710   11.82283334398746   11.54529371446307
O         5.02551206112907   16.03363695048190   15.13074579084653
O         3.41444477665008   17.27164207691604   16.02059756447978

