67
CSD_code = UGUDAB | q = 0 | S = 0 | Stoichiometry = C21H36F3O4PRuS | MND = 8
Ru       11.88307573293759    1.31384747181327    5.84725204535531
S        11.52792292933607   -0.15432406607347    3.34354833301595
P         9.70217044837718    2.13148534375494    6.23324720351469
F        11.59295185618580   -2.80710009084188    3.36326331304361
F        11.45258425847040   -2.00266462777810    1.36829121351675
F         9.72646317985560   -1.98986863870405    2.66242163675655
O        12.60796948527413    3.06133906910565    3.56722873439959
O        10.93837057744755   -0.32780542294784    4.68003508442817
O        10.84815525695610    0.80650161701882    2.52749785314203
O        12.96119502750353   -0.13955019231102    3.31657093835511
C        12.14529304813396    2.40674298460076    4.38453380719283
C         9.70552154047458    3.73184906083033    7.21864572543761
H         9.99145356400055    3.39031453534421    8.21975432260264
C         8.36116718729649    4.44770492906951    7.31682698554632
H         7.55463992220577    3.76546495626882    7.57375926962859
H         8.11575678708919    4.94117825638395    6.38021612099722
H         8.41516837800103    5.21368267462142    8.08949217268955
C        10.79100768201032    4.69686650594285    6.74648987197802
H        11.68514756736577    4.14236648004853    6.45394128636548
H        11.04672946874802    5.39454123662949    7.54289137726799
H        10.45621225681256    5.28155072030873    5.89431133117682
C         8.56547050296276    2.51872355985126    4.79786842577807
H         7.72717853983055    3.07312584706179    5.24046067994499
C         9.26445506448012    3.38914249649130    3.75806082286827
H         9.82870484272417    4.19913681816343    4.21216243026665
H         8.52737029411987    3.81919550636981    3.08134881404787
H         9.94003121494875    2.77135576890180    3.17007161571218
C         8.01316779723703    1.27777354325215    4.10124829061020
H         7.35042125065430    0.70131728844331    4.74119016868309
H         8.83071117760569    0.64929576753681    3.75594837954214
H         7.44454346770447    1.59004733005728    3.22666117704669
C         8.55191057839526    1.04806822212654    7.25068357211635
H         7.52886517004257    1.31249517194777    6.95564993245103
C         8.68692091328231    1.22528655714215    8.76071035981960
H         8.31771766626359    2.18878719216768    9.10088205363947
H         9.72568423097241    1.12085734094275    9.06208129784272
H         8.10976493262540    0.45118566248135    9.26526997106956
C         8.82045281803538   -0.41239964420505    6.89465656502757
H         8.81549969498204   -0.57582960468983    5.82136852486681
H         8.07534146143107   -1.06050925524313    7.35527977196263
H         9.80366632524182   -0.70077551563443    7.25647071956507
C        11.05300518300890   -1.82865196766071    2.62763526462053
C        12.81696107593196    1.46055143141503    7.92348619197607
C        13.69588770607215    2.02407277299868    6.92170330456837
C        14.10980717143671    0.95723214095396    6.05256808747593
C        13.43718011472799   -0.21962919022067    6.46609911192490
C        12.62574824231251    0.08195875474435    7.61390382127875
C        12.49057328092053    2.14368928124179    9.21814770630550
H        12.17645899053574    3.17347118614598    9.06252299184784
H        13.38973388068904    2.15687246193663    9.83819130313000
H        11.71409676987667    1.61855610533074    9.76784368974188
C        14.38527882222399    3.35461111850088    7.02992766581622
H        13.82181469997593    4.04418473298415    7.65340530176102
H        14.52524244194210    3.80834025258598    6.05083874501115
H        15.36917946321384    3.21206163986741    7.48138681771965
C        15.21421051993139    1.02203212966431    5.04475810738719
H        15.49516604361162    2.05169203522868    4.83902030195782
H        14.90144337918541    0.55515610180123    4.11300724097719
H        16.08814959031605    0.48907715832027    5.42398279540925
C        13.67501752878542   -1.59024685281410    5.92713455439691
H        12.76386239513611   -2.18654307815156    5.94692376814466
H        14.43096559879036   -2.09361131987924    6.53517081467315
H        14.02496313757756   -1.53855561811928    4.89937166950038
C        12.10779183217183   -0.96745910914684    8.55651925433557
H        11.32342230679877   -0.58524017733480    9.20630227119574
H        12.92856236902578   -1.31537760009456    9.18939921789134
H        11.72024335779547   -1.82734724643028    8.01395780168673

