97
CSD_code = UGUHAH | q = 0 | S = 0 | Stoichiometry = C52H32N8NiO4 | MND = 4
Ni        0.00517760922095    5.36262232471552   -0.00109934015478
N        -1.44161829853085    4.36974060356486   -0.92935450392168
N         0.15376477495644    3.90651754433195    1.31127028642418
O        -4.09492299783695   -2.62386792731014    1.11499991423915
C        -3.22257627883140    3.88091299449360   -2.30772338996957
C         0.99981461289231    3.83997513724547    2.38499381376480
C        -2.15340603701156    4.79070318114945   -2.01599942412869
C         2.73428272206594    4.57226405700381    3.98941425381099
C        -3.12197507605334    2.85896238397696   -1.38144837628358
C        -1.99135508476579    3.17611674567884   -0.55742189173940
C        -2.01176002840364    0.04339220810267   -0.31293734317796
H        -1.37678531818114    0.24145300811837   -1.16485441750791
C        -3.44037733754570   -1.45752015628021    0.89985253123303
C        -0.55330282653034    2.73521617474401    1.34479779426870
C        -2.20403964186007    1.03260901378780    0.64354442996085
C         1.93918135333607    4.78427643654952    2.76313964164276
C        -1.56437366322429    2.35040078933548    0.47838977553724
N        -5.13270073510164    4.03370303957963   -3.98496052242143
C         0.81847266473248    2.61100553544553    3.10358538603902
H         1.36443293343953    2.33888181831137    3.98476378954527
C         4.54189808466870    3.49588192732174    5.16278261797301
H         5.36097349823879    2.79492546764666    5.14558899729704
C        -2.61543188733569   -1.19352607146856   -0.18921252029204
H        -2.44474991565545   -1.93579896041563   -0.95205534218104
C        -3.00509962207132    0.75388519122827    1.74953526438264
H        -3.16287682330361    1.51677977542502    2.49772889926231
C        -3.61966231559465   -0.47010705393392    1.87272490689271
H        -4.25980008180066   -0.68972725350712    2.71209323000333
C        -4.03180656949671    1.80017854363569   -1.26360294496278
O         4.93325554786858    4.15724948352127    7.47524295193076
C        -4.24117372469159    4.00262680160715   -3.26168701603199
C        -0.13057601413591    1.91496162369861    2.44473032812669
H        -0.52664755931361    0.94399609372864    2.66540808543794
N        -4.84915206639219    0.99415155080702   -1.22832254881956
C         3.77803117121657    3.65857924656180    4.02208618715636
H         4.01132999349700    3.08506938583325    3.13656884654765
C         3.18080596957900    5.13081221976110    6.28377334602967
H         2.96281560812253    5.69082679236840    7.17874992345865
C         2.43831808982725    5.30269913066402    5.13896862662315
H         1.61864687937199    6.00638308647472    5.12719991832541
C         4.25399855565008    4.23690625971807    6.30511471003199
C        -4.04294021633272   -3.62036455968663    0.12122594220112
H        -4.42172139868039   -3.24830220226397   -0.83525547859313
H        -4.68546557572474   -4.42414833225733    0.47688167633674
H        -3.02588516911145   -4.00391059713911   -0.01115434032477
C         6.08553299977219    3.35030239072467    7.53397477521853
H         5.84412203839477    2.29198764746244    7.38937064389771
H         6.49258228408119    3.49129866575266    8.53388723602128
H         6.82797228526850    3.66125875236665    6.79296925740576
N         1.44688840270557    6.35918836831179    0.93178856201906
N        -0.13947260869591    6.81570616577712   -1.31725837302219
O         4.08957610123634   13.35644989217285   -1.12330053814410
C         3.20849641794441    6.86350037540738    2.32947107022527
C        -0.98033069664035    6.87864046719910   -2.39535230299355
C         2.15237072402632    5.94282449583875    2.02436591101086
C        -2.72865859283908    6.15320560746486   -3.98818584948995
C         3.10818777849671    7.88526648801514    1.40305870703386
C         1.99076838888528    7.55724457314554    0.56532413870775
C         1.99255194648799   10.69364317594094    0.29283142638200
H         1.34077542235117   10.50188441839477    1.13339929278163
C         3.43786338594595   12.18850852151779   -0.90761784932444
C         0.57356496286318    7.98312201595044   -1.35607664432156
C         2.21124048643085    9.69423701439213   -0.64707021535422
C        -1.93072766457072    5.94166305381712   -2.76398638231378
C         1.57390167793313    8.37514633021994   -0.48053009510824
N         5.09896637029245    6.73314053350302    4.03081894383612
C        -0.78534583777976    8.09872414756748   -3.12543732589238
H        -1.32349870069845    8.36569450316366   -4.01296430591076
C        -4.52209776619062    7.25008923038858   -5.16445078656564
H        -5.32694166390659    7.96742883556610   -5.15140096838533
C         2.59164875558735   11.93260426645120    0.16692415257973
H         2.40040090173035   12.68297360697601    0.91685646595569
C         3.03423123628109    9.96419164005040   -1.73891757055756
H         3.21192840641054    9.19341832142282   -2.47448143496120
C         3.64392357281302   11.19047092876298   -1.86413597695607
H         4.30026745518262   11.40392933711102   -2.69250482718840
C         4.00762309204453    8.95427389962757    1.29835112095302
O        -4.94216142710796    6.56589625795803   -7.46515049936563
C         4.21658923535981    6.75276448834076    3.29590197045273
C         0.16429810287219    8.79474821143168   -2.46744979005498
H         0.56887131964779    9.76051708637205   -2.69540357323915
N         4.81566310579707    9.77007717584198    1.27644099548079
C        -3.75388317776757    7.08752072567327   -4.02673069907180
H        -3.96974505497358    7.67731393726281   -3.14751561582346
C        -3.20160589043605    5.57317261374641   -6.27198585521828
H        -3.00077222149775    4.99707860715670   -7.16075390266663
C        -2.45543156887206    5.40132513417233   -5.12958728744655
H        -1.65006984310133    4.68136732824224   -5.11360279576165
C        -4.25677039104407    6.48818536868027   -6.29853248699865
C         4.01046261014461   14.36445256801984   -0.14302391680522
H         4.37054358084856   14.00615019476932    0.82584952381616
H         4.65598316822303   15.16769980806141   -0.49442622873709
H         2.98863291843297   14.74357502002680   -0.03727241036926
C        -6.07879030323535    7.39455345440369   -7.52704864387294
H        -5.81571166850014    8.44971693889294   -7.39811705191994
H        -6.49535754191495    7.24843717094232   -8.52229025438232
H        -6.82207431986963    7.10803777766544   -6.77708840952518

