39
CSD_code = UGUMAL | q = 0 | S = 0 | Stoichiometry = C14H18O4PtS2 | MND = 6
Pt        6.24873054634839    1.54345049237932    3.16513483444916
S         4.67773069652020    0.64260339934748    1.79831448964839
S         5.72749821377571   -0.01910551671516    4.74745280444987
O         2.40626698204356   -1.07298049334276    1.06320501904883
O         2.83680297384871   -2.66597445901820    2.58931266629921
O         4.52261543673415   -2.97447800764199    5.24135858817736
O         2.64679098039936   -1.74014477352350    5.17993795778319
C         4.03479339438982   -0.66604447136143    2.73913403845792
C         4.47898284843744   -0.93362594926299    3.99431127668438
C         3.00853896262721   -1.44886725305734    2.03738206144541
C         1.85077620244076   -3.48546629513602    1.98115845816916
C         3.91539010476085   -2.01496228554526    4.85064584906296
C         1.99371249284524   -2.71821785581091    5.97580608348323
C         7.21944332820268    3.29302463221448    3.99230304036297
C         6.73787512574877    3.56829317149700    2.60866460541583
C         7.73517016786706    2.67605475288663    2.08544470306851
C         8.21410747939467    2.39954768699046    3.46906114385247
C         7.03942232019765    3.98858319121497    5.29338715032816
C         5.89929364253057    4.63962922142671    2.01046511801543
C         8.31996795291507    2.46213808128143    0.73628276478116
C         9.46099534226844    1.80760148820910    4.02038979732870
H         0.85165098133152   -3.12214188193355    2.23328559106114
H         2.00308248930715   -4.48811312767505    2.37345448808708
H         1.96735735777082   -3.47295712286929    0.89539910629563
H         1.90250445903832   -3.65257126078888    5.41809590587371
H         1.01237371104265   -2.31369322717368    6.21096632855215
H         2.56376585957699   -2.90609683165169    6.88837893852081
H         6.00687569853437    4.30461129649490    5.42619928014197
H         7.67473278128472    4.87711104300730    5.31975045942099
H         7.32231251460882    3.33799852607317    6.11801194683396
H         5.55713732391647    4.34792762910998    1.01998680339393
H         6.49024887200012    5.55389128263188    1.91842801939916
H         5.03564383115344    4.85359579277542    2.63640235485032
H         8.77758029595440    1.47794823629204    0.66120605028987
H         9.09230944729930    3.21276894619318    0.55285882013924
H         7.55462938737717    2.55907832588633   -0.03063310371065
H         9.32760004129958    1.54063335415052    5.06639835927586
H        10.27116248649461    2.53718180584306    3.94923743377806
H         9.75162726771771    0.92086845660598    3.46112076748714

