30
CSD_code = UGUSAQ | q = 0 | S = 0 | Stoichiometry = C15H8ClN2O3Re | MND = 6
Re        1.09244349861300    5.68591984820729    3.63915013065612
Cl       -0.18463409493989    5.70443361616572    1.63219280638829
N         2.09709343466603    4.11503997443547    2.56855668244658
C         3.20862181133353    4.20113113584483    1.86164870895675
H         3.79149800263496    5.10507777842744    1.98180638032542
C         3.63884772806597    3.19915841362140    0.99106927585454
H         4.55231397329198    3.33852406990480    0.43526516369096
C         2.88653799358002    2.05722583196566    0.84983051696494
H         3.18513650107651    1.26572631069345    0.17869959933185
C         1.70378752761911    1.93033757910188    1.59403280201702
C        -0.67998981461831    1.78221111652249    3.10955930960510
C        -1.86037125099657    1.76221774127198    3.86794639422119
H        -2.52215386219285    0.91107684212701    3.80734335671061
C        -2.14980635324013    2.83938915560493    4.67161145619588
H        -3.04797922982224    2.86614494355255    5.26770461988327
C        -1.27123401950492    3.92271951460577    4.70997046480299
H        -1.48745754474631    4.77699213647380    5.33827372168579
N        -0.15803319522376    3.97484573592568    4.00237950991518
C         0.14293091486886    2.92324411217919    3.21138775893733
C         1.34910187080092    2.99821945005192    2.44451626004941
C         0.85107182441655    0.79165246897246    1.51753979764519
H         1.13908550648354   -0.01281716166021    0.85716056775012
C        -0.29012478444068    0.72074767612236    2.24303241660461
H        -0.93653150974109   -0.14182527613051    2.17678279656880
O        -0.92067201555713    7.71248150154657    4.81890953109349
C        -0.12941754595295    6.98446896229890    4.42758249255905
C         2.20467000401458    7.12928693040027    2.94586972553514
O         2.82712163712912    7.94595437506539    2.44094873399102
C         2.13697359953279    5.45261290817932    5.25958991400073
O         2.75416939285041    5.27730230852149    6.21333910561405

