35
CSD_code = UGUSIY | q = 0 | S = 0 | Stoichiometry = C13H15Cl3N3Rh | MND = 6
C         1.45626453679026    2.43896500448633    3.15966831376675
H         0.85126773583401    1.94555301664343    2.39042637709461
H         1.85772839350924    1.65930543336572    3.81185064991329
C         2.53295838046385    3.37133508874722    2.57214687198148
H         2.73990461281922    3.13963615494919    1.53049622565827
H         3.45902400046487    3.27238160978201    3.13720608132714
C         1.94989329717781    4.78405289747196    2.74973223805656
H         2.67622691047566    5.49903278691269    3.13530595952477
H         1.54279910269336    5.18267751088473    1.81694896277849
C         0.83374469294899    4.54681475103719    3.71704151061176
C        -0.00517826619383    5.50689673636407    4.40652216117799
C         0.01513179234356    6.89865719804737    4.38912408265503
H         0.74082605834526    7.42811321837240    3.79326454907161
C        -0.92020505677328    7.58366646159612    5.15551858819094
H        -0.92021298014838    8.66265179947391    5.15550859824391
N         0.58527868292318    3.29324259734885    3.92330733620690
N        -0.92018569042020    4.87189794765766    5.15554188225241
Cl       -2.38352036399424    3.04898592192591    3.34537485633668
Cl       -0.92014299712815    0.73641154976113    5.15557221197680
Rh       -0.92021679973967    2.99265660871910    5.15551253358453
C        -1.85553642456845    6.89865673249334    5.92192018797895
C        -1.83520601796698    5.50689629163868    5.90454697418047
C        -2.67412552266638    4.54681494317980    6.59403523346515
C        -3.79027791420446    4.78404901928677    7.56134016541782
C        -4.37338055245811    3.37133902990048    7.73885400896125
C        -3.29665408587657    2.43896440179780    7.15140431576834
H        -2.69168124187540    1.94557784688057    7.92068056094892
H        -3.69807963361658    1.65928710461990    6.49921965126124
N        -2.42565039733503    3.29324208436098    6.38778470656805
Cl        0.54311824722743    3.04900953324770    6.96563455451380
H        -4.58042384883815    3.13962241252435    8.78048131827004
H        -5.29939680353607    3.27241272607196    7.17370725051427
H        -4.51658706072339    5.49907391997820    7.17580730740382
H        -3.38316554724434    5.18260668458336    8.49414456088755
H        -2.58123923870913    7.42811297588903    6.51776921345047

