47
CSD_code = UGUXOK | q = 0 | S = 0 | Stoichiometry = C19H20ClF3N2OPd | MND = 4
Pd        5.53539244297468    7.36933301778638   19.98581747421034
Cl        4.74262399747409    9.42234995799861   20.31240020691157
F         7.33033511978924    9.59273418830029   26.29813998003988
F         7.96891481151519   11.01984528138677   24.82289080071057
F         5.94064767686715   11.05002801381628   25.54519384920030
N         6.17261658783229    5.46605305356844   19.55895248934379
N         5.84435992942700    7.40331873301484   22.17946676522852
O         6.91510390453079    4.11868769146690   17.94865641072776
C         5.86002910135050    7.61860847447678   18.02327219086592
C         6.50045043069996    6.49395940680925   17.45880318914625
C         6.94162938410672    6.48459654592630   16.13706843664831
H         7.42080071647844    5.60026981804732   15.74352441346951
C         6.75383308276605    7.60989740400082   15.36002434162992
H         7.09154883596082    7.62181103111101   14.33433764596455
C         6.12789914880208    8.72486031341463   15.89909491280681
H         5.98090334067378    9.60240502695676   15.28582732730269
C         5.68765257494936    8.73531284977223   17.21670112273473
H         5.20200853522932    9.62033423853261   17.60608583501304
C         6.56229102957817    5.35069216316686   18.33704481700566
C         6.03167036192166    4.14842633354010   20.13877307206083
H         6.54288890624923    4.09892020784898   21.10701062601656
C         6.74090578386831    3.26704804355875   19.08080714419984
H         7.72812859745765    2.93524336951051   19.41821440708921
H         6.16247589965029    2.39792370893093   18.76741801254211
C         4.52504709750133    3.82597915525826   20.36044034110326
C         3.94687046751865    4.83837532759424   21.35620098177884
H         2.91289062456344    4.58541299230638   21.58020492944534
H         3.96392952492959    5.85524034938180   20.91962186394646
H         4.51468517498853    4.83443738952457   22.28539181090046
C         4.38755747943606    2.41776847413194   20.94330128962229
H         3.34309600572263    2.20950138892131   21.16149562351880
H         4.95392336413711    2.32914919091317   21.86790144149749
H         4.74235028168699    1.65835688793709   20.25138077633904
C         3.74620912515881    3.94824528323000   19.04800722055213
H         2.70298628753382    3.69140492235564   19.21496522306491
H         4.13623148392055    3.28704283339791   18.27790858888799
H         3.78775513639720    4.97623023591481   18.67774089062018
C         4.92915211392808    7.91229819230048   22.99968157053190
H         3.91189317511263    7.56580331596976   22.86582063262311
C         5.23050141115161    8.83845069453480   23.98627344164031
H         4.46013458709286    9.22978302104846   24.63086706851629
C         6.54499552660146    9.26639502937681   24.10226008864268
C         7.50826362263975    8.74977740859580   23.24306987096605
H         8.53504514256609    9.07397453096399   23.30294234563415
C         7.10680930747104    7.81898303420970   22.29964197491119
H         7.83247500053885    7.37462821524384   21.61761591078315
C         6.94008785925605   10.24100325393051   25.17874064355816

