116
CSD_code = UGUYEA | q = 0 | S = 0 | Stoichiometry = C55H53N3P4W | MND = 6
W         6.15783237524547    4.80308315418620    5.72195819749758
P         4.34459381084007    4.77784857983189    4.16946342800751
P         4.35892909575751    5.28518687914474    7.21959712822260
C         2.96182934671967    5.83113032776121    4.85159269727349
H         3.30002274926001    6.85364801371860    4.63776277218351
H         2.03995407627741    5.65288943725438    4.28738631049446
C         2.74086929668417    5.64996209351838    6.34424055419629
H         2.07072528835471    4.80434135859893    6.52830016343704
H         2.28044174644065    6.54208465991572    6.78136451914651
C         4.29563528941443    5.49326463841623    2.48960946452019
C         5.42238156798626    6.17166767502071    2.04926664135804
H         6.28526588932864    6.21801251218079    2.69826820118370
C         5.43827742792297    6.78299715755973    0.80825517618955
H         6.32429046103220    7.30594922807936    0.47909488780504
C         4.31750609866501    6.72075297410937   -0.00121125013962
H         4.32250124375254    7.19315873977325   -0.97293404902239
C         3.18149842475265    6.05601926773364    0.43672997497970
H         2.30433955510731    6.01464427828660   -0.19383046773560
C         3.16437336584365    5.44797133299654    1.67740905575237
H         2.27545183981762    4.93040202888719    2.01343890130471
C         3.53379818712417    3.16323674859274    3.93714928622695
C         3.48044720647801    2.49722294123582    2.71607423567144
H         3.85761625703698    2.97521283131892    1.82227805805287
C         2.93767323784523    1.22730483773675    2.63544006979107
H         2.89099210367533    0.72356569037707    1.67973135316769
C         2.45067216304380    0.60003925827951    3.77019032636876
H         2.01981547865042   -0.38852692231706    3.70086514899786
C         2.52980848063765    1.24199328156899    4.99561892988351
H         2.16505929963196    0.75396071994027    5.88916700709163
C         3.08298343077505    2.50504282241422    5.07924985590906
H         3.18372113063857    2.98762339797704    6.04299474043872
C         3.72150330033571    4.21176512805558    8.55165558303203
C         2.71386666159236    4.64672251521695    9.40888280090327
H         2.31201972469521    5.64512763374371    9.29844383865115
C         2.24333510235924    3.81102022453607   10.40301725112299
H         1.46446477781215    4.15210855217283   11.07034662299601
C         2.77003870705386    2.53625063563256   10.54913933804556
H         2.40088193120710    1.88749267658101   11.33044994147796
C         3.76774650074390    2.09797013065138    9.69620135398737
H         4.18163479124066    1.10607987799984    9.80927221187065
C         4.24107444085981    2.93432460938057    8.70054225264569
H         5.02497134606361    2.60814656562288    8.03240075811246
C         4.61430313066919    6.82225477312052    8.15858229493879
C         5.15379377176161    6.75702462756893    9.44045069202373
H         5.27643978677705    5.78981678251676    9.90832368374397
C         5.51187079185811    7.91018982321037   10.11081654252310
H         5.92634574344280    7.84854408712980   11.10756540449435
C         5.34373534128614    9.14517965527416    9.50515084054186
H         5.62907108319924   10.04702685837518   10.02740525757106
C         4.80916576478407    9.21976634757414    8.23002646436601
H         4.67891287917121   10.18060483074099    7.75299164084143
C         4.44759165012450    8.06704994521903    7.55674819027693
H         4.04389747492252    8.13749223565412    6.55656897571223
P         8.06177062888457    4.48300554368799    4.30421195426433
P         7.87304753403267    4.63697302375433    7.39657761982036
C         9.61832926030036    4.53508674067339    5.31132539511744
H        10.46841412821986    4.12254754202415    4.75758128950852
H         9.82217625859250    5.59550249001321    5.50561186671023
C         9.35817284437562    3.81976287119856    6.62446834444271
H        10.22616569761648    3.85849888246611    7.28973748061328
H         9.10307006771722    2.77263253863359    6.43111133231567
C         8.62162606567684    5.57973054422949    2.95697574733435
C         8.81310720063833    6.92203113997285    3.28175199426867
H         8.63278647124161    7.25609071962913    4.29511192289355
C         9.20480302968419    7.82575512780506    2.31361747487206
H         9.34620456473303    8.86470095768660    2.57312002792827
C         9.40879041500214    7.39983640685740    1.01033436958023
H         9.71454681496270    8.10592204931664    0.25168298100168
C         9.21384466438834    6.06939367073548    0.68037234188927
H         9.36833866750877    5.73598490189471   -0.33616287969365
C         8.81794605543162    5.16066204330151    1.64611860429249
H         8.66065623331251    4.12503824899229    1.37920263451191
C         8.11303210153990    2.85287484532095    3.49081583869443
C         6.96344621727758    2.54106731093482    2.76676446553372
H         6.17679856393276    3.28648094110115    2.70942371022736
C         6.82601836463615    1.31713220935009    2.14461573647243
H         5.93039220556528    1.09143576503178    1.58340821146442
C         7.83769375468296    0.37433612642693    2.25085230672300
H         7.73558040222314   -0.58920906341513    1.77260194027585
C         8.97866423684429    0.66930113636460    2.97744045379947
H         9.76758065427317   -0.06553761228401    3.06298404919340
C         9.11940724277550    1.90068868900242    3.59712370071122
H        10.02052060191958    2.10626825751309    4.15667695659474
C         7.63935428715410    3.57376719853846    8.86242661034090
C         7.58283974866704    2.18932423152855    8.72449730849984
H         7.76352397656214    1.74131932797872    7.75789595486068
C         7.29213316885416    1.38356473488399    9.80929943647567
H         7.26379347438146    0.30860762885198    9.69103166592318
C         7.03354294125902    1.94831012731995   11.04700717584918
H         6.80031868052284    1.31908744722400   11.89359382934681
C         7.07612556068777    3.32444317052172   11.19316498359034
H         6.87507511175376    3.77144046284178   12.15650536871541
C         7.37810198587662    4.13062631299326   10.11161180045358
H         7.42858188169249    5.20312370990614   10.23499665743673
C         8.68114279786090    6.07434369634633    8.17997654083613
C         8.19390796400781    7.34853233119026    7.92423009750750
H         7.34175343465027    7.46784199365110    7.27351051607328
C         8.78467345547733    8.45614054070074    8.50765774464210
H         8.39297150112477    9.44138322484203    8.30199116169669
C         9.86784909179742    8.29729000131632    9.35359709405513
H        10.33112886980506    9.15917971721239    9.81187577611224
C        10.35620359809645    7.02683894139540    9.62058126723525
H        11.19702053915425    6.90071774916905   10.28830806002465
C         9.76676983627982    5.92055265390614    9.04073767636052
H        10.13682925558325    4.93028066653448    9.27300052602022
N         6.20059768087050    6.65279296178394    5.39595806601907
N         6.19360522028796    7.74599929441542    5.11495698933931
N         6.06340795520535    2.80132224846316    5.84542466151293
C         5.91771817103135    1.66425827406453    5.68267589529170
C         5.75673413654703    0.24147853260468    5.49700098227826
H         5.51023273681979    0.06293221635219    4.44465214602925
H         4.91126990545549   -0.09834924687130    6.10489578357080
C         7.02007869335627   -0.53636095085148    5.87380730483979
H         6.87795616526810   -1.59435990576625    5.66584126061717
H         7.24238300004070   -0.42040974266935    6.93245993829862
H         7.86967359919278   -0.18026205862005    5.29466859063285

