80
CSD_code = UGUZIG | q = 1 | S = 0 | Stoichiometry = C39H34CuN2P2S2(1+) | MND = 4
Cu        1.50389653543437    2.94486558209334   11.29942853870181
S        -0.38709702199416    4.52942418961876   12.26145361116937
S         2.63753575815555    2.23894300056628   13.13052672354520
P        -1.36895994251417    2.87928140386826   12.59204571933359
P         1.07580719015980    2.13342931883323   14.32081134674557
N         1.82306664691092    4.47239471085157   10.03710582293602
N         1.05039465118141    1.89201760598048    9.63402392499900
C         2.20661393029563    5.71029922556672   10.27732984942990
C         2.04406177407878    6.72035865807686    9.31295041130942
C         1.48721376290581    6.41611635044861    8.09824793668434
C         1.08292587673701    5.09407828016383    7.83149780788033
C         0.52367905988815    4.68778552985715    6.58879425993103
C         0.19404067732351    3.39190844566791    6.36571676877056
C         0.37805917462889    2.40707995885243    7.37512985796920
C         0.08006602943270    1.04673094612819    7.17892722154255
C         0.31617306848947    0.15343427608880    8.19059327597605
C         0.81487514654075    0.61174511865063    9.42077604681174
C         1.26666552039396    4.14559063417523    8.85886318879057
C         0.88424126419230    2.78360277129293    8.63704446228243
C         2.79578883328182    5.99169971089683   11.61352627900489
C         1.12803576927951   -0.35017880007808   10.51720437642917
C        -1.97065908175197    2.07703349564438   11.06821438452060
C        -2.30670904158686    0.72940247848518   10.99610370425880
C        -2.79511861785507    0.20856299863229    9.81169508775510
C        -2.95497846605890    1.02387204634282    8.70287179699436
C        -2.62541199849069    2.36724381573135    8.77501351965797
C        -2.13499914772570    2.89329712207542    9.95545438800209
C        -2.85231357936339    3.16403071374341   13.60703299532484
C        -3.13248938651948    4.45600410693718   14.03202969602053
C        -4.25731818610527    4.69721009707554   14.80002914914690
C        -5.10351804515029    3.65322062512024   15.13572887166004
C        -4.83047566577365    2.36557647516758   14.69895333900536
C        -3.70770288203327    2.11589236140307   13.93254470687396
C         0.60319350159222    3.65036900142993   15.19164005052935
C         1.44127871893217    4.75584286715802   15.13548321386163
C         1.08530129872226    5.91454032039410   15.80093103495352
C        -0.09718029033733    5.96229830254665   16.52195079529485
C        -0.92111189829789    4.84920274962858   16.59305484575929
C        -0.57361427860330    3.68589002431947   15.93251226555272
C         1.37752111428881    0.89307183365678   15.60852865764013
C         1.70187912671185    1.28567409212280   16.90106443328090
C         2.01476842427901    0.32624899559393   17.84790132331529
C         2.01248782327486   -1.01579688943569   17.50505573738713
C         1.70480575525435   -1.40544927609760   16.21023917742621
C         1.39370384528489   -0.45366963983328   15.25810459551451
C        -0.45535803895686    1.52143784023724   13.47746567791118
H         2.36535606820928    7.72444426969548    9.54041421850351
H         1.35931499958025    7.17305397815178    7.33862997438403
H         0.38262798427224    5.43531695604742    5.82274515943992
H        -0.21049649833076    3.07789145814452    5.41532252049968
H        -0.31178760100077    0.71977655215564    6.22735630909484
H         0.12806860747629   -0.90033169648848    8.05831549119913
H         3.15373820877616    5.06220859704301   12.05402561795043
H         3.60677445498486    6.71177873800639   11.54452674695415
H         2.02119010107418    6.40172887753245   12.26258345126304
H         0.22250848928178   -0.84767430041047   10.86352770513931
H         1.80501687029769   -1.11915559276826   10.14867793547947
H         1.61381810740597    0.17632495488382   11.33846880711062
H        -2.19583107756364    0.08433065227470   11.85637665562765
H        -3.05763628750354   -0.83721805612183    9.75540132801164
H        -3.34143438931738    0.61067401142095    7.78405900179804
H        -2.75295267632604    3.00645312963128    7.91468464818306
H        -1.86874526710108    3.93965577468586   10.02591914918546
H        -2.46123153453735    5.25906300654412   13.76069339252588
H        -0.13011991185570    0.78248400613069   12.73804933395482
H        -4.47368534125319    5.70064009051734   15.13301990957643
H        -1.11150013144916    1.04652896411900   14.21298115425398
H        -5.98175014407218    3.84095915934545   15.73402799276939
H        -5.49589142091060    1.55483102020012   14.95410314628748
H        -3.50482941225845    1.11295963197328   13.58354899076773
H         2.35570656083813    4.69718534061987   14.56121341749069
H         1.72888033438980    6.77968681891447   15.75673347336874
H        -0.37711520195042    6.86886300990244   17.03622824496421
H        -1.83659171991290    4.88597713922577   17.16398017244462
H        -1.20516523958717    2.80996558306747   16.00037721506921
H         1.70761808645057    2.33546335631326   17.15962342873694
H         2.26567964749017    0.62864800455070   18.85299651848633
H         2.25960351940681   -1.76091882837976   18.24532311091368
H         1.71504552097079   -2.45113012244338   15.94277520919979
H         1.17455158548225   -0.74967796017933   14.24068969146790

