106
CSD_code = UHABUB | q = 1 | S = 0 | Stoichiometry = C55H43N3O2P2Re(1+) | MND = 7
Re        0.52974134609022    1.58213388672472    4.36220308376246
P         0.17796211192342   -0.71676674163079    5.14296976260489
P         1.13362739309940    3.95814444757204    4.46443738300124
O        -0.58767299528753    1.88900620705118    6.21660041466536
O         2.03324086660906    1.74100837165253    5.98121405137034
N        -1.47158046883880    2.11909289624191    3.84170844854046
N         0.22830313997193    1.11042011980984    2.35373712792563
N         2.43382340924998    1.00289029271030    3.53533002429351
C        -1.70980225529922    2.50999782642316    6.12047989242291
C        -2.45625666986224    2.94499578605533    7.23050728169998
H        -2.06732123504804    2.76093312226915    8.21878777820139
C        -3.64246195982595    3.60716956256141    7.03037014486934
H        -4.20298464489874    3.95786249581318    7.88351731779448
C        -4.13513305854863    3.84704447050831    5.74550667228644
H        -5.05668841945970    4.39233067120308    5.61938613238744
C        -3.45575431229507    3.38622053768665    4.64187084604974
H        -3.83712099129335    3.57606674988769    3.65017770999656
C        -2.24811569615724    2.70736840182388    4.81974220612569
C        -1.93473901767806    1.84447815258447    2.64791895395528
H        -2.94728816318765    2.06405174252589    2.34357714162378
C        -0.99545840915376    1.24379566479606    1.77306619052499
C        -1.23503992437742    0.86138671087191    0.44899369063830
H        -2.22607218279021    0.97644863482750    0.04368328833577
C        -0.19505719523235    0.35916866474707   -0.31017271159949
H        -0.35869093547074    0.05594786404296   -1.33146834107847
C         1.06706549883713    0.27344742303329    0.25401390573831
H         1.91265066676727   -0.08041986161332   -0.31150470920205
C         1.25248457909280    0.65816333719972    1.58370618899960
C         2.48528984764854    0.61952203109890    2.28745001649184
H         3.39034642116315    0.26918184627418    1.81338114469003
C         3.52940080849540    0.96107621952960    4.37038319299443
C         4.82301630023568    0.54934806069217    4.03473170898869
H         5.05121526888232    0.20477521948290    3.03853185534151
C         5.81679688861510    0.58646586422441    4.98258569512804
H         6.81526905870368    0.27108036709631    4.72553103954277
C         5.54308437231960    1.03290518345506    6.27669717995225
H         6.33732794851632    1.05916095180315    7.00717435647665
C         4.28139293854321    1.43446609832439    6.63603899883215
H         4.06177638975470    1.77585919022242    7.63549996547680
C         3.23947606316528    1.39512748480152    5.69124596728246
C        -1.19646031143959   -1.57023095897927    4.31110948479683
C        -1.09567593530602   -2.81421096997199    3.69879340975422
H        -0.16137642102796   -3.35545331411601    3.71063506716747
C        -2.20670001644773   -3.37609203315812    3.09266815662680
H        -2.12293937057232   -4.34296961943436    2.61983091230066
C        -3.42140857408355   -2.71125845072916    3.09945700774774
H        -4.28191909611196   -3.15451437797286    2.62242615360357
C        -3.53509651863090   -1.48589256033292    3.73750394499836
H        -4.48653946572860   -0.97662994131822    3.76988089475285
C        -2.42921024737892   -0.91976008354674    4.34123841877498
H        -2.51722571713323    0.02033509041003    4.86850794038694
C         1.67214898922900   -1.70143753016417    4.82738231233980
C         2.57795001091782   -1.96664757057661    5.84966921601653
H         2.34293631943476   -1.68001178457104    6.86459442877065
C         3.77695291271568   -2.59761065766632    5.56981683968118
H         4.47407479060180   -2.79934121709525    6.36855131728993
C         4.08360896816925   -2.96682108917811    4.27115388243586
H         5.01903991051774   -3.45973372696427    4.05565954868137
C         3.18751392188527   -2.70238799657652    3.24737379932751
H         3.42243933748444   -2.99222836385589    2.23371996256653
C         1.99217508275770   -2.06363981151621    3.51851491832064
H         1.29971849584985   -1.84591237960950    2.71611917776199
C        -0.17220926851205   -0.99688330201546    6.90269403388152
C         0.44087183214441   -0.20854613784802    7.87301613021056
H         1.07862992305918    0.60742763358392    7.56964576686984
C         0.20513519210563   -0.45588677882125    9.21286769611590
H         0.67862742285649    0.15931171339127    9.96366012625096
C        -0.63692645496226   -1.48807775850226    9.59396370756954
H        -0.82163860336332   -1.67800932961956   10.64042870318950
C        -1.24449983464492   -2.27577420776713    8.63015566739761
H        -1.90030096467109   -3.08158918660252    8.92358214651360
C        -1.01654824641758   -2.03506967300563    7.28710221196032
H        -1.49601885154595   -2.65405742643701    6.54227764568322
C         0.82830150513593    5.06384296158280    3.05150653638755
C         0.22462229533802    4.61961328953737    1.88425947549239
H        -0.09706902074445    3.59226338550540    1.80731922376553
C         0.04082766192501    5.48812663928190    0.82120478346773
H        -0.43017407110994    5.13558966496210   -0.08423547191545
C         0.46315225052970    6.80241870455845    0.91959454216015
H         0.32011586382441    7.47950033812109    0.09158153361393
C         1.07617071792362    7.24900646399052    2.08114353237850
H         1.41111192104219    8.27231239316393    2.15644589623894
C         1.26283591413707    6.38511662832883    3.14238582914529
H         1.74416610497479    6.72851824584047    4.04800821278436
C         0.32026182067912    4.78601173140610    5.85670827358123
C         0.61719459205834    4.37210225810080    7.15530904182863
H         1.32242829849521    3.56820117250878    7.30823322609340
C        -0.02417629853625    4.95819358567438    8.22993479956572
H         0.21524426248881    4.64401215162203    9.23508675238687
C        -0.98010290288120    5.93965203824765    8.02019544459790
H        -1.47974822647674    6.39555354293757    8.86127586062593
C        -1.30651567012158    6.32330536071060    6.73046694766073
H        -2.06596123107614    7.07195584412330    6.56369284125277
C        -0.66488057147779    5.74721442614286    5.64887332153072
H        -0.93014294972622    6.04555182145724    4.64453568597010
C         2.92202808090123    4.24300633678386    4.65335868347458
C         3.71347208197872    3.88525486986839    3.56283536246732
H         3.23866326576743    3.50616783743434    2.66576183661307
C         5.08602982852130    4.02363622877404    3.62064188800357
H         5.69279749740234    3.74311102161002    2.77299700474853
C         5.68206276975059    4.52124503772935    4.76855816990369
H         6.75512692422203    4.62239847151482    4.81910615697649
C         4.89846632995419    4.89962981405141    5.84464053549138
H         5.35996745475215    5.30428162771904    6.73275959459284
C         3.52135600823241    4.76464444311399    5.79188435307228
H         2.91958549748172    5.07290951051148    6.63371849835070

