33
CSD_code = UHABUA | q = 0 | S = 0 | Stoichiometry = C14H10Br2HgN2S4 | MND = 4
Hg        1.03936032400660    2.19623229418422    2.53815231111938
Br        0.01310352821378   -0.00378412949255    3.14919101855763
Br        1.67708274207991    3.91481187143692    0.83352620382261
S         3.34199590004421    2.23915824966100    4.28048952527997
S         3.31124133987042    2.45941010918645    7.26561255583111
S         0.10730031186451    3.87448696993265    4.69702734063220
S         1.78399492435057    5.70563715609108    6.36946718314303
C         2.70085820626339    1.82116395466847    5.75755946172427
N         1.69127908227845    0.97232702628279    5.97330051872290
H         1.20090015780374    0.50210922449771    5.21124637433507
C         1.31742611356933    0.80465958757747    7.28395879804046
C         2.10984526449109    1.55161296812078    8.16271510679991
C         1.89249374258777    1.51315035766215    9.52862396367934
H         2.50728870683448    2.09168149123530   10.19851503410060
C         0.86501656341441    0.71465808986738    9.99817278305081
H         0.67457498484991    0.66932033080127   11.05897491519955
C         0.07328616182300   -0.02730925641378    9.12633150533941
H        -0.72231836767776   -0.63875233667226    9.52211808586076
C         0.28748050180181    0.00643827414874    7.76196470459095
H        -0.32008234526000   -0.56025551035130    7.07474030267378
C         1.31700109352321    5.00769298677671    4.83656636616318
N         2.04596753840884    5.51777661583417    3.83912363205654
H         1.92227109535668    5.22650255914463    2.86847552495683
C         3.01040183835171    6.42502959037985    4.20324042044900
C         3.01924557445319    6.66749902211015    5.58139341951766
C         3.91828095869194    7.55576249430221    6.14457435523302
H         3.91849722203138    7.73652505311504    7.20703505666122
C         4.81013788950566    8.19518329392611    5.30226734957214
H         5.52234798882041    8.89071398438345    5.71775158837943
C         4.80529882423047    7.95439684121949    3.93131860005460
H         5.51471890994201    8.46620637096332    3.30023351815842
C         3.90857171223684    7.06968926238142    3.36410618516829
H         3.89593151130984    6.87086520303559    2.30442629112133

