47
CSD_code = UHADUC | q = 1 | S = 0 | Stoichiometry = C15H24ClN6Pd(1+) | MND = 4
Pd        3.07724166763501   10.49868251571643    0.28768697899431
Cl        4.38336813313898   10.52910535501604   -1.53025282472414
N         1.77231283646782   10.78489858236602    1.89645171992673
N         0.73751287497726   11.64097215646061    1.79142157971223
N         4.66698400146499   11.12844677244403    1.33295803796922
N         4.98332746982683   12.38763383892106    1.67947087152291
H         4.34568340283793   13.15741876613758    1.52681403175738
N         1.58907653967222    9.86999306236700   -0.88719089070579
N         1.41062242721478   10.43133304813347   -2.09599083201065
H         2.12976775701926   11.04977877271908   -2.46457975223540
H         0.54080768274586   12.12482007330189    0.92440787610062
C         0.03829436248217   11.71235925509034    2.94552739697014
C         0.66715540731051   10.85925104113112    3.82851228369836
H         0.38878649978285   10.66028657061917    4.84175889008366
C         1.74658268065139   10.29813217033215    3.13034770296814
C        -1.15867231082528   12.56992956234218    3.09964101084366
H        -0.94738499720591   13.59116707519180    2.78712410557062
H        -1.47673324320776   12.57918468042533    4.13727569920866
H        -1.97995061639832   12.19362931248585    2.49037541400235
C         2.74687789864227    9.30290117499309    3.58874868730455
H         3.32010498089576    8.94363526541013    2.73045828893499
H         2.25164019154653    8.46427834206319    4.07294557045028
H         3.42864819726514    9.75048171407606    4.31054286339748
C         6.24012478940099   12.45829249429267    2.17096450261157
C         6.74194463615713   11.17376771804897    2.13431222870307
H         7.71323140093063   10.85204052830865    2.44573819597246
C         5.72837029860417   10.37278719852808    1.58980001032932
C         6.85103177987730   13.73186269859199    2.61422213081076
H         6.14779444022199   14.31750176765074    3.20295897236580
H         7.15130266511866   14.32736698237832    1.75230757322568
H         7.73401891188259   13.53149265204581    3.21283859734109
C         5.73897962279918    8.91516258630008    1.29119252871371
H         4.80286216139417    8.62398100154968    0.78531499946189
H         5.86373283391921    8.33325057987329    2.20336028310969
H         6.57293529509218    8.68316847803965    0.63058521530231
C         0.66899302693198    8.92095092813290   -0.75099527344405
C        -0.11829644887292    8.88113072973596   -1.90934203017131
H        -0.93875980956904    8.22219579065303   -2.10146296869741
C         0.39518812073058    9.84246770650400   -2.75901969098393
C         0.59884085872790    8.07247298382532    0.46799196145044
H         1.56604771152625    8.08814686973098    0.97930785171235
H         0.35587521858634    7.04922137499684    0.19359829938869
H        -0.17193911961787    8.42957853084337    1.15096480141487
C         0.00397167936831   10.23888702937673   -4.13058701611255
H        -0.16832700421986   11.31229204124195   -4.18959788335701
H        -0.90189416645455    9.71861426003204   -4.42543299321263
H         0.79521725355238    9.98664796165687   -4.83567500569042

