61
CSD_code = UHAQAW | q = 0 | S = 0 | Stoichiometry = C20H32Cl2N6Zn | MND = 4
C        -2.01735365851323   -1.48440575801103    1.18416350097968
C        -0.84100298865658   -0.74793434073141    0.95172669604839
C         0.19032403618080   -1.32830915042457    0.21599781603080
H         1.07571578296632   -0.74122863012722    0.01809432976286
C         0.08074748489293   -2.61754400458841   -0.26893360608626
H         0.89282335496365   -3.04987654995353   -0.83437636006251
C        -1.07802764536293   -3.34199341862707   -0.04560930023702
H        -1.17833195767381   -4.34403537000004   -0.43464336514970
C        -2.11935013082677   -2.77485812976781    0.66396819905300
H        -3.03601783336114   -3.32604227279057    0.82004187440461
C        -3.90501668898797   -1.48499295108738    2.62568760136461
C        -2.36009153090386   -3.00135086783433    3.85768505836268
H        -1.64428580786604   -2.95130430607696    3.03606190661662
H        -2.44041811129738   -4.04695804816926    4.17196757626934
C        -1.87995420832104   -2.13064346586834    5.01754732941092
H        -2.50446416791182   -2.26366489102807    5.89785915950110
H        -1.89951220264726   -1.07719835251226    4.74309236300348
H        -0.86224486620889   -2.40638218029213    5.28059825282459
C        -4.81405675404284   -2.93261814461965    4.18618839981134
H        -4.57290440985031   -2.79466507701703    5.24418654515857
H        -5.10597579997597   -3.97614178541177    4.03009188192429
C        -5.88801816315276   -1.94527944685484    3.72553257296940
H        -6.69374650864660   -2.44595659481660    3.17528870923182
H        -6.33127154024536   -1.38728848764262    4.55639110937124
C        -5.87919787293348   -0.10545778272176    2.02910893951235
H        -5.25379521485633    0.77517765265490    1.86894113834638
H        -6.76356237567748    0.20332477750438    2.59101381419568
C        -6.27597725570810   -0.69570254289939    0.67909505361591
H        -6.91774979137875   -1.56622298477479    0.80352091021067
H        -5.38507673779536   -0.98721225236050    0.12869922708251
H        -6.80853469331321    0.05190805771906    0.09923980753763
C         0.29457674739697    1.12015361130361    1.85573303615710
C         1.11273353273501   -0.73194606727773    3.28025316371583
H         0.14005334522255   -1.14986170684723    3.02577612173598
H         1.09573731498466   -0.46343069810354    4.34529666430589
C         2.20465139867602   -1.76203844506802    3.01789417879050
H         3.18328097274762   -1.35889691087300    3.26597523472790
H         2.19939954800472   -2.05605514655942    1.97190411985822
H         2.02910572760067   -2.64452099569332    3.62701892394592
C         2.31425690717379    1.41692486050629    2.94457364506222
H         3.27251822713267    1.20210823168535    2.45939229461227
H         2.44929792255706    1.34191894600849    4.02780393370754
C         1.75424579695455    2.78201417607898    2.52893681719588
H         1.50077475619176    3.40432375341790    3.39400011913166
H         2.44467583792822    3.34020982528659    1.88856725957230
C        -0.20977232872045    3.44351777609124    1.11017887086427
H        -0.96398279075180    2.93648607974786    0.50653359112873
H         0.46089622704336    3.99634345143471    0.44003582847113
C        -0.88707747027329    4.40480855547199    2.08184975204808
H        -0.15986518755189    5.03877070413117    2.58446151485961
H        -1.44618983301440    3.84705758728434    2.82958131785125
H        -1.58525393781088    5.03322825272773    1.53767605960600
N        -3.09356201908849   -0.86642716717422    1.81059554571918
N        -3.66347310278134   -2.61765477482315    3.35306512725218
N        -5.16101081630653   -1.04975863521235    2.85286219585644
N        -0.78152144957359    0.58684238224837    1.34394067959882
N         1.31051937699329    0.46629557494747    2.49552420547429
N         0.56392249606551    2.43338821280277    1.78647118524599
Cl       -2.26574163560439    1.36975918882464    4.17758195261955
Cl       -3.75438721769441    2.66745033626487    0.84403645723577
Zn       -2.63908008920472    1.12644634057087    1.96555306254957

