61
CSD_code = UHAQEA | q = 0 | S = 0 | Stoichiometry = C20H32I2N6Zn | MND = 4
C         0.75084648927669    3.35860778417758   -4.11272799838481
C         0.21859371551198    4.57317223537486   -3.68903107750272
H        -0.61704665092632    4.56091256845650   -3.00293773147629
C         0.73807617132565    5.77002353188590   -4.14366133986927
H         0.31265596540195    6.70245094343000   -3.80348718698786
C        -0.20702699108140    1.92190577269777   -2.50326442010679
C         1.56404699372065    3.05993702285573   -1.18974467811611
H         2.01533709994495    3.19535890146163   -2.17307409505643
H         2.17773681441919    2.34212302306674   -0.62893167243425
C         1.52789799197448    4.39468249488071   -0.45721246528852
H         0.93949225906803    5.11753916234258   -1.01609521658626
H         2.53920427972555    4.77761609197957   -0.35404670489772
H         1.09854059441152    4.27978035592919    0.53481493163235
C        -0.36889999707706    1.86463848240191   -0.20194534712306
H        -0.84059358734037    2.61233236567963    0.44183001807124
H         0.40118937481279    1.34050404496618    0.37532700826727
C        -1.38500544457813    0.88812652304625   -0.80235989860501
H        -1.22975082737660   -0.13645597235771   -0.45277285072058
H        -2.42008359165903    1.17902569439196   -0.58521080550378
C        -2.03218515214338    0.37908551648390   -3.17317099857839
H        -1.78642583253465    0.77695915186080   -4.15948781288185
H        -3.05946135671965    0.68230453631443   -2.92954548096618
C        -1.93174642549517   -1.14222506105594   -3.17522389794684
H        -2.29172036362906   -1.55894569445652   -2.23777133533598
H        -0.90151217943050   -1.45944951142809   -3.31733781630084
H        -2.52819629758683   -1.54510415066413   -3.98888039623852
N         0.19132645077903    2.14082791642587   -3.72931819156541
N         0.23619317598745    2.50634887353563   -1.35738586146802
N        -1.13227668853464    0.98328541576117   -2.22229115056282
Zn        1.27052242842141    0.59678086710749   -4.58616131181847
I         2.38277961685770   -0.53624195286218   -2.59447369856893
C         1.79019490050437    3.35860314393800   -5.05962336016228
C         2.32245960698144    4.57316095530782   -5.48332213262720
H         3.15809725206985    4.56089182067004   -6.16941928854453
C         1.80299261712757    5.77001777153922   -5.02869003179171
H         2.22841971426324    6.70244107091262   -5.36886755637577
C         2.74801452578527    1.92188809436065   -6.66910118281430
C         0.97688432990716    3.05990666058116   -7.98255400770156
H         0.52563429878136    3.19532753634200   -6.99920650334389
H         0.36317476462972    2.34208845208415   -8.54334084252987
C         1.01299820089700    4.39465218063025   -8.71508793978326
H         1.60141670115088    5.11751223736365   -8.15622333654527
H         0.00168593095186    4.77757804910780   -8.81822090635409
H         1.44232487490262    4.27975319411807   -9.70712884774355
C         2.90979105261157    1.86460456255587   -8.97042680210501
H         3.38145355268356    2.61229309282047   -9.61423009004809
H         2.13967609079068    1.34046335392986   -9.54765921058787
C         3.92592397936333    0.88809993533864   -8.37004650555352
H         3.77066044914109   -0.13648491118583   -8.71962242413759
H         4.96099240337944    1.17900306550305   -8.58723482278375
C         4.57319316622121    0.37906716392701   -5.99925606777421
H         4.32746894228323    0.77694393888788   -5.01293167011596
H         5.60045968247015    0.68228773892193   -6.24292010572453
C         4.47275849353788   -1.14224376672732   -5.99719389218005
H         4.83270326351906   -1.55896825736000   -6.93465612275292
H         3.44253043548618   -1.45947248301136   -5.85504547030009
H         5.06923644034873   -1.54511872426070   -5.18355556392552
N         2.34970296007356    2.14081994632719   -5.44303743217330
N         2.30474734537263    2.50632562729582   -7.81496751615212
N         3.67324879932676    0.98326341533026   -6.95010603643779
I         0.15834718991167   -0.53631179893670   -6.57774484800849

