40
CSD_code = UHAREA | q = 0 | S = 0 | Stoichiometry = C12H11MnN6O10 | MND = 6
Mn        5.98350292314274    6.83602490704251    7.87138600754906
N         6.30477057082183    6.01667007717625    4.92325694912205
O         9.64880057492791    5.72020540321458    9.14795789211844
O         7.74462799475377    5.94600514298219    8.21516917841070
O         8.35963894556091    7.33632091285671    9.71481776928561
C         4.78662571514253    7.77436748948617   12.32319350668864
H         4.53382665376582    8.03610000077956   13.33811911678086
N         8.63045339447398    6.34901461955659    9.05466541688290
O         6.34980241763779    6.88003638472376    5.85390775647304
N         6.57340122411680    8.66022147640600    8.02509177563888
O         5.30706282494645    4.77504697601254    7.74087251061914
O         3.95236883013612    7.40977078470466    7.20103633132174
N         5.47859426599617    7.06131026988956    9.67380888282447
O         5.74616709434256    4.94345990479217    5.16418562842027
O         6.75670126715528    6.29535702685567    3.84826265095773
C         5.68417052796260    8.32144322229970   10.14992186561579
N         6.49269953952377   12.16483403249627   11.50534615607435
H         7.41128285230319   12.60202699650242   11.48804715683722
C         7.20866806288990    9.41206263164671    7.13877432026038
H         7.43469854281282    8.94735250862599    6.18886122243073
C         7.31520482454650   11.31655685516281    8.60836540924487
H         7.59707917853461   12.33499997326740    8.82284113439740
C         5.68710992638237   10.06481893577580   11.79836020002404
O         6.05017742420595   12.03218164529430   12.82510186231569
C         6.30175629049994    9.20711527132627    9.23634355642418
C         7.58649501778074   10.73648280384752    7.39455949716634
H         8.10041110618631   11.28798730155251    6.62375503665011
C         6.65521164376174   10.54080149866462    9.58590169843797
C         4.57044065637162    6.49495728842735   11.82138272641380
H         4.13557566233909    5.73283354307270   12.44751541570951
N         5.52412431618436   10.67781141001132   12.96770600039662
C         6.32467505270661   10.92899714790982   10.88728812797107
C         4.92708946011890    6.18491683015443   10.52179306516835
H         4.76741968974291    5.18560283001207   10.13758320131225
C         5.35658502692412    8.70862930893436   11.46987884522636
O         5.04807261088007   10.35935302036637   14.03654046373876
H         3.43529067639972    6.60020467369188    7.08862271890008
H         5.37348435800090    4.62035513871457    6.75875690016479
H         4.03830983543893    7.81136507324222    6.32563586285313
H         5.99452302057743    4.20659868254322    8.11148618315329

