49
CSD_code = UHECOA | q = 1 | S = 0 | Stoichiometry = C17H25N4O2Pd(1+) | MND = 6
Pd        7.15066836812393    3.46054214141355    2.32097375981969
O         2.38037477875660    6.39127099844452    3.43612634813040
O         5.23983056573246    8.34029051584646    6.40115186999307
N         3.81155522176624    7.35317184353058    4.91054701633619
N         4.49674439175840    5.60952928195124    3.44350332542080
N         7.35009288581787    6.42872889905556    5.30540206036742
N         6.85232112963315    4.97190521435491    3.71629555047527
C         2.71373702287295    8.20743652720094    5.34521161014738
H         3.08877562293997    8.85978984351709    6.12943625530931
H         1.89637367143767    7.59311659362997    5.71989848990535
H         2.34994184818393    8.79518288545498    4.50376791218649
C         3.48591511837272    6.45721262942119    3.90665180849722
C         4.13065382124463    4.70106407386565    2.37139833658667
H         5.03325449764507    4.19825334585928    1.97724386258719
H         3.64881180583582    5.27130458188488    1.57553735697342
H         3.40721306615681    3.97113924739907    2.74173887588193
C         5.73441489636700    5.69346177988484    3.99366179761112
C         6.02683686625558    6.60762623979090    4.99320876052985
C         5.04479549216609    7.52462601116320    5.52874907653762
C         8.09007056950487    7.17480550336811    6.28959895810562
H         7.41906359100817    7.90190442202463    6.74527630442450
H         8.92408904137312    7.69590913849038    5.81916746689320
H         8.47725353340137    6.50681713358438    7.05927066261005
C         7.80097274562798    5.44886898777608    4.52166554942737
C         7.65599755090973    4.96898155923105    1.01942419114621
H         7.03039180352819    5.84787169362435    1.19870899326728
H         7.54695479866398    4.66116900390023   -0.02294868303929
H         8.70394582384753    5.22236484926101    1.22202474675542
C         8.31772543732209    2.06485379369998    1.19483315707270
H         8.95259560026988    2.63544227827493    0.51268571240953
C         6.99565749191811    1.89010436298939    0.84503896280730
H         6.66054626038542    2.36694037042992   -0.07939154235635
C         6.11502221094505    0.74805340780465    1.30673808746994
H         5.39133084918941    0.53413914105421    0.51859466138362
H         6.72764634171098   -0.14581466598335    1.42120135388866
C         5.32042757551867    1.03504706276274    2.59977618283703
H         5.00271874237019    0.08425211938473    3.03903100038776
H         4.40814160077572    1.57935740233578    2.33505991285262
C         6.05672580472368    1.82835433946551    3.65101926407615
H         5.40959383832584    2.42504944970108    4.29843825087027
C         7.35968888739887    1.70302603266348    3.99050782496742
H         7.72313836962725    2.24476252857870    4.86591921919849
C         8.32193624768594    0.70597906023120    3.39935559522481
H         9.04137313946292    0.41877636578759    4.16861980275745
H         7.78801905700110   -0.19634851694972    3.10698685202594
C         9.11565758644924    1.28645418162626    2.21085940792065
H         9.64033955334574    0.47626806150509    1.69498372202742
H         9.88969230686269    1.96223372526603    2.60259393614302
H         8.81607256976276    5.09212455448928    4.53395637318184

