69
CSD_code = UHECIT | q = 0 | S = 0 | Stoichiometry = C17H45CuP4S2 | MND = 4
Cu       15.04127979335116   12.92565647162710   12.61694967496400
S        14.29921505511432   14.58262025220644   15.48631392746404
S        16.98498618736392   13.79316587712701   13.49597749289062
P        15.90525409378495   10.97664220583290   11.53245004952273
P        12.97205200985974   12.52748040550263   13.46638728367352
P        14.78443199803457   14.75294471415943   11.06839436147986
P        16.05050504138934   13.70160618163986   15.26977438805512
C        15.24469303460899   11.18380420287587    9.82967151177227
H        15.17284516968570   12.25176864656095    9.62301314719297
H        14.24917217810657   10.74803629983499    9.76849150207486
H        15.89650641166128   10.70774521699169    9.09715977977296
C        15.94304071442652    9.13306040474150   11.62602803692910
H        16.44674605317377    8.71179306334476   10.75647339568222
H        14.92438521649670    8.75086647461791   11.67504555843329
H        16.46991623711797    8.83777570373609   12.53162421219361
C        17.67855350305407   11.30494136490344   11.21371326726424
H        18.25380097077061   11.04954085172553   12.10176899751350
H        17.79985625991512   12.37146486588755   11.03346367754637
H        18.03540042381422   10.72898844945925   10.35923976974349
C        12.22506087698463   11.77414234658223   14.96376421603208
H        12.44560575003289   12.41700210158063   15.81504670509787
H        12.65044241070491   10.78444421691903   15.13285417042647
H        11.14548579125857   11.68929518142524   14.83564718070748
C        12.32721997788659   11.38112450161071   12.18058049345190
H        11.25963178718225   11.19548251616916   12.29580969848745
H        12.87204609038928   10.43905063825503   12.23959849265976
H        12.51899501340628   11.83367707120484   11.20801697366464
C        11.82417750855979   13.92496228909917   13.20833195482906
H        10.79006567099481   13.57845177573049   13.22265678420089
H        12.05055285192154   14.37945742601370   12.24423889031108
H        11.99185872306286   14.65276845680717   14.00025314751032
C        13.65589555076477   15.20761594721869    9.67312307195174
H        13.87714996304030   16.21060170386770    9.31017390162294
H        12.62170361699683   15.16911226516440   10.01135554211544
H        13.77997406624249   14.49411280128468    8.85952035264259
C        14.60591240432518   16.23353589791047   12.12485284070356
H        15.29764566431995   16.12738129518254   12.95993557598915
H        13.59624343892420   16.28424732742140   12.52887130167357
H        14.83624034764944   17.14041976864430   11.56371204382031
C        16.39963739428936   15.13177269520469   10.28395978180657
H        16.39935739678810   16.14501856125822    9.88132711521277
H        16.60328964630554   14.41951691287544    9.48510232821915
H        17.16754952095939   15.03789788336757   11.05065713851229
C        15.84156709815391   11.91070388551446   15.74426004825961
H        15.82490527219423   11.86897878489080   16.83829053397828
H        14.83717381555024   11.66012313391939   15.38461683936550
C        16.83512753639267   10.91053987229638   15.16784408730376
H        16.81751082546463   11.02035899234006   14.07306648190522
C        16.38820478195912    9.49332223859975   15.52002548423778
H        17.08566234715520    8.76159685917671   15.11575265482184
H        15.39925125131682    9.28892139614166   15.11326381182221
H        16.35001441968700    9.36386420569138   16.60041862930506
C        18.25378737924033   11.17056320478843   15.65629224793464
H        18.60744011104260   12.12631432896982   15.27778729703373
H        18.92836663440108   10.39411502125293   15.29885908356851
H        18.29098086598403   11.18461768866063   16.74447571473148
C        17.22474534152936   14.36421633343805   16.54898952613249
H        17.01957186438937   13.80815423027848   17.47001581983896
H        18.24560926508348   14.14756171472429   16.22558034186750
C        17.05616742142460   15.86027382212295   16.79810342204195
H        15.99039346231331   16.05955273137446   16.96547734380944
C        17.51080426363684   16.65918227402356   15.58328338246750
H        17.34819101667627   17.72358352858712   15.73931791716265
H        16.94718100829400   16.34898719941759   14.70550481834039
H        18.56806024578653   16.48902683640726   15.38496223499555
C        17.83612645012784   16.27612984544678   18.04268394274953
H        17.48194995378542   15.73879567510641   18.92064221439519
H        17.71480479220693   17.34225045917854   18.22227192279678
H        18.89742076091855   16.06757250463618   17.91428446253175

