83
CSD_code = UHEFAO | q = 0 | S = 0 | Stoichiometry = C29H35F3FeN4O10S | MND = 6
Fe        3.86170762862393    6.07184076689151   10.45700534880618
N         2.17945821270951    4.75748547227433    9.93949431805883
N         4.86675639593419    5.22091899080006    8.93849346659550
N         4.89953121785129    4.86483234769299   11.49251839950890
N         3.25895865406431    7.27663669972838    9.17455244892746
O         2.89610854088203    7.01518095712451   11.92777060996622
O         2.67000875295720    5.23292388590975   13.21600758052310
O         5.37648770268101    7.33256028495691   10.92911051801077
O         5.57781313588401    8.86371491280130    9.03781334026229
O         7.51336339362203    8.32164886521509   10.42161793958073
O         3.02008129097262    0.75534411242083    9.59555369514808
O         5.20743833368640    1.06671040739381    9.25811284072195
O         3.23136212867903    4.70827947638621    5.22046976737802
O         1.11768243268866    4.97571141673249    5.90738319543842
O         3.21027213826482    2.31466566500763    6.92984110009567
S         6.09051431147786    8.45205177785330   10.31983363780901
F         5.85489447317041    9.46957915908573   12.75315815979268
F         4.36735432506872   10.18937093620878   11.37301663987522
F         6.37861301241762   10.94481522518462   11.27111098553774
C         5.45880100016561    3.87222476819457   10.78598940358617
C         6.42884465845457    3.03449268613954   11.30434477191912
H         6.83165297211784    2.23840708960406   10.69852159712732
C         6.86574442326719    3.24669690441154   12.60506097244320
H         7.61212825249072    2.60321501019862   13.04393686626946
C         6.35067659012135    4.32856482384514   13.30049093990396
H         6.69563948440255    4.56604594069395   14.29349015378308
C         5.37817650012961    5.11196010311622   12.70352449139613
H         4.96300105273097    5.97072531297287   13.19548012717993
C         3.59748385701469    6.95915299495119    7.91628015444034
C         3.47994797375985    7.85355212768388    6.87237719707684
H         3.78399191474372    7.56895708911945    5.87673025955021
C         2.99181389867249    9.12728160728161    7.13355014979762
H         2.91036435840976    9.85341058871049    6.34037526409043
C         2.62776432107245    9.44311030268780    8.43165310683178
H         2.24912657185237   10.42029482035618    8.68207710024182
C         2.78236715269281    8.48827083657972    9.41989264803547
H         2.53108276374950    8.66361523735211   10.45255179273787
C         5.01251737816611    3.81857516856816    9.34297609381409
H         5.78217487814609    3.31093340436640    8.74015394743416
C         4.07648641974012    5.53367962374257    7.74671749563615
H         4.69204012062809    5.43600886556279    6.84102218612752
C         2.84558744959175    4.61987448835355    7.55624721021857
C         3.25423437021208    3.17475354821914    7.76393632162118
C         3.72507858126783    2.98017332945359    9.19596940633179
C         2.60885183257815    3.38572428808694   10.16801472930312
H         1.76788980915286    2.68772803576654   10.03530101407685
H         2.96194077930305    3.31669367941358   11.19868173547582
C         1.72648126574362    4.89933539153321    8.56508535218273
H         1.34538004279920    5.90982392074740    8.41355137591525
H         0.89980597748164    4.20184385698723    8.35249909114957
C         1.03680516707735    5.04873717172169   10.80156349350414
H         0.16639548246073    4.44508933592781   10.52028737286077
H         0.79470435191679    6.10398221620879   10.71950606777207
H         1.31304720288053    4.83686836765565   11.82992086021210
C         6.20658641617965    5.77248919255651    8.73173456898275
H         6.73087814476316    5.23301784499440    7.93394246192173
H         6.78448483663747    5.70894527458448    9.64929308177914
H         6.13426449547850    6.82462182678081    8.46964325897703
C         4.09135440995359    1.49675451828658    9.36379183011542
C         3.23758120220056   -0.65003829667913    9.69354094290724
H         2.27883241456477   -1.08536291438756    9.96103807582719
H         3.98664881592225   -0.86197971832265   10.45801955121966
H         3.58464602463670   -1.04100625206679    8.73602330013343
C         2.28109766498037    4.79567853029148    6.14066867980337
C         2.80385638622392    4.78157342402216    3.86276342136990
H         3.70700395723554    4.86266813341501    3.26406407323287
H         2.15862765890977    5.64965727895116    3.71779606107248
H         2.25098233639158    3.87905122559439    3.59914560235643
C         2.62187451224386    6.45365500875676   13.02551726373824
C         2.21343930338839    7.39137451577903   14.18707016237287
C         1.11117007925347    6.72190672131659   15.00728452762577
H         1.41506771828611    5.71242588282158   15.27173899400913
H         0.19022578212509    6.66210773663142   14.43069821117278
H         0.91785302108740    7.28649161749153   15.91713086596406
C         1.74767889122809    8.74439655449162   13.65667355335392
H         2.53338125885091    9.20735230287799   13.06705339003140
H         1.49415674678851    9.40207736307716   14.48620781036043
H         0.86945558800542    8.62484736777715   13.02565094623527
C         3.47123688877136    7.57123155819351   15.04519835088418
H         3.81088854869015    6.60632323194453   15.41643853182920
H         3.25551551459596    8.21528186222387   15.89643899675971
H         4.26763218521045    8.02641983280683   14.45968808605158
C         5.65434426075683    9.84636407990206   11.48942065785444

