72
CSD_code = UHEFOC | q = 1 | S = 0 | Stoichiometry = C28H31ClFeN5O6(1+) | MND = 6
Fe        7.68002203791657   -0.28636904434825    3.69461923940766
Cl        6.91338549841090    1.31467430667475    2.44567026709789
O         7.66122855838523   -2.76264994526891    8.04701267806815
O         5.92278897295621   -1.25932892790449    8.11635953605685
O        10.00692438644051   -0.20116799676340    8.17499245606773
O         8.01473906395866    0.19280147965245    9.11471599221557
O         4.07607744288166   -3.19142378782638    6.23905294357700
O         5.80210364122332   -4.42215358998545    6.94436952833542
N         6.39200563476744    0.10096791104746    5.19039195054407
N         8.40015785073126   -1.92031285797597    4.77759756996140
N         8.75449446433027    1.08738257793875    4.54913394071312
N         6.26481620734211   -1.33338141203524    3.01508771781151
N         9.04780866582863   -0.72329930320107    2.41930716386782
C         7.26634617791926    0.46649113698356    6.31035206818086
C         8.01368215968849   -0.73050184214357    6.92094246469556
C         9.02653810582076   -1.39743467194946    5.98393534294679
C         7.41109193242618   -2.92317537144865    5.17341599273987
C         6.31861190864322   -2.29289216019509    6.03200440623318
C         5.60016995945454   -1.13218864479871    5.31392945621076
C         6.96087185177055   -1.78136620210277    7.35335544837296
C         5.45275254207208    1.20751878084345    4.98326573402220
C         8.28236347254009    1.43114875092102    5.75593136053815
C         9.65933023169687    1.88176707340130    3.98585373727235
C        10.14425508456245    3.02457085194160    4.59581486088279
C         9.66211576625822    3.37501774179269    5.84628211459083
C         8.70663061689273    2.55805384042566    6.43404944517542
C         8.81028743302671   -0.22976112547099    8.13368777103054
C         8.66627241916504    0.66595460633464   10.29732534916579
C         9.40833855597178   -2.57047499680911    3.92866595651838
C         5.25364973125072   -3.33534558069526    6.39993347670606
C         4.89197267578320   -5.45088525643676    7.34547280746678
C         5.26402905309410   -1.52639769465785    3.88996866119648
C         6.05738522735052   -1.62407090460917    1.73548824436322
C         4.85657350934921   -2.12570040419698    1.26657242398976
C         3.82032775996824   -2.32471885264004    2.16473268437086
C         4.03017296527499   -2.01490743640836    3.50228861672295
C         9.87997854192836   -1.69486668672402    2.80837739413868
C         9.37098909669023   -0.03294009264586    1.32194182323253
C        10.52836632674416   -0.25303282837960    0.59928285172134
C        11.41631278825754   -1.22514367738816    1.03378912232738
C        11.07376161503369   -1.96265491723429    2.15566357431439
H         7.08397475354724   -3.51625901322704    8.24184316258212
H         6.27825411363338   -0.88771996580625    8.93807404868358
H         6.67942017234442    0.93149205368324    7.11510128027810
H         9.79642963329914   -0.67867279090475    5.70452052849462
H         9.50760250348840   -2.20145653152455    6.55852011184363
H         7.89229236052286   -3.72583018800672    5.74877248972756
H         6.96227146329183   -3.35449810611610    4.27743201943344
H         4.68010301377177   -0.94302943749430    5.88279965712819
H         4.84593716012069    1.00989124896474    4.10377793713618
H         6.00457608468707    2.12641206685166    4.80366126077607
H         4.80218784758259    1.33290883730595    5.85441984710913
H         9.99678309286164    1.58988426875730    3.00453643082078
H        10.87834684738894    3.63144224819045    4.09242567436729
H        10.00879842006581    4.26406651387375    6.34774423028393
H         8.28613667344695    2.79934772613220    7.39766921723704
H         9.12993000449026   -0.16797035324762   10.82508988330233
H         7.89247088097182    1.12406030004331   10.90729957233296
H         9.43712533206207    1.39104577068270   10.03475564884618
H        10.25539322714075   -2.92337459743394    4.52617866321640
H         8.95270323926489   -3.44848993242918    3.46002111027020
H         5.50201752265730   -6.24575791449981    7.76571423604245
H         4.19064872950707   -5.06429311637893    8.08618981968648
H         4.33151177395548   -5.81022805660426    6.48193799359295
H         6.88724283781814   -1.42784913974280    1.07561730841184
H         4.73522576175519   -2.34040372196848    0.21776970690355
H         2.86427346599253   -2.69834190964739    1.83524096609365
H         3.25205463349358   -2.14832899001111    4.23559658870759
H         8.65920627328326    0.72459212057165    1.03042144017394
H        10.72852211014731    0.33338081717320   -0.28219902824604
H        12.33981182500144   -1.41379732778162    0.51063944068432
H        11.71811830859992   -2.74722572512390    2.51949458122702

