45
CSD_code = UHEFAQ | q = 0 | S = 0 | Stoichiometry = C21H16BrClN4OPt | MND = 4
Pt        6.79475197426254   -2.53977140060764    4.49369062689461
Br        3.30455816778569    2.04980994266110   11.24654098541990
Cl        7.56377930050160   -3.73393416015642    2.75343608860030
O         6.57166507972492   -2.17104479083923    7.27246074839011
C         8.53424691004660   -5.08580553070351   10.74410462996399
H         8.84306930656179   -5.54569402386269   11.67031606879451
C         9.09078572409401   -5.50116516813328    9.54458625156900
H         9.83516651949036   -6.28259418838992    9.53588671028302
C         5.28449544540546    0.84973035745447    9.58348017323436
H         5.93346760858591    0.97935628192716   10.43607874744696
C         5.39506477858002   -0.50823891884239    6.06255124176114
C         4.92420620100744    0.10846693100055    7.32098476154108
C         3.12116704999087    1.13048605064089    8.55139504614217
H         2.09841202543354    1.46961510405348    8.61072137038154
C         3.96593628643228    1.26733973857617    9.64103884268330
N         6.17733380722989   -1.56761448643434    6.05531000421965
N         5.92926024109459   -1.30083001778268    3.28940188687583
H         5.98329323663152   -1.42887742350539    2.27911501262074
C         8.69952561297979   -4.91790362376378    8.35509493019515
H         9.15604959557719   -5.24463553572176    7.43243511618122
C         3.60719160829189    0.55629019348445    7.39382969850811
H         2.96998593390944    0.44140935695860    6.53199798648398
C         7.58253847979279   -4.07810804764166   10.75183159446061
H         7.14725328671638   -3.75222444387731   11.68438231784765
C         7.18513682410940   -3.48819421134217    9.56826052364643
H         6.44039016045600   -2.70762319456834    9.57038384576718
C         5.76064094767167    0.27003468204914    8.42209450457023
H         6.79445407955187   -0.03531338361916    8.37400819038187
C         7.73866580959959   -3.90430072631357    8.35411507998875
N         7.57761381794498   -3.67506735539313    5.90298696719108
H         8.12927948213359   -4.52254203875503    5.81350416351252
C         7.30890977956835   -3.27124474479797    7.10680236622862
N         4.96598370244534    0.07693000880921    4.95925485484755
C         4.61672233145203    0.64356749164967    2.70002158680833
C         5.22539058231559   -0.26658072713437    3.69586067883370
C         3.45808521392290    1.34519912515290    3.02598766084545
H         3.03543408863651    1.21368529502811    4.00865693357216
C         5.18262831040204    0.82203198385940    1.43898223018315
H         6.10352504704250    0.32134865522494    1.17542547613987
C         4.59122485200132    1.67279455871367    0.52321349776564
H         5.04117984255146    1.80814307190325   -0.44909359357072
C         3.42870521510983    2.35106214922869    0.84959173495939
H         2.96690873436560    3.00999187361294    0.12947462981938
C         2.86588767468814    2.18749442394777    2.10507607758023
H         1.96312932390600    2.72002086624256    2.36552175043353

