67
CSD_code = UHEGOD | q = 1 | S = 0 | Stoichiometry = C24H30ClFeN4O7(1+) | MND = 6
Fe        1.23152103764458    2.56267786488134   11.53306866402148
Cl        1.52409238600986    0.43206662236504   11.33960288220575
C         2.14407374708845    5.36902672713509   11.99481111421329
H         1.99098770671563    6.45303210395181   11.91910984404520
H         3.03756582354481    5.10904184399942   11.42784292402869
C         2.35989265533138    5.02449175705205   13.46338818132644
C         1.11775177963726    5.49083571537094   14.26760685273429
C        -0.08815690498489    4.71707745781291   13.65964042991994
C         0.11190397170121    3.21532347040225   13.94424570166960
H        -0.00775876980179    3.09025999421075   15.02830172774772
C         2.59760790321372    3.52434020808638   13.71491148253832
H         2.95550895215940    3.42044490902571   14.74913524243313
C         3.55388698877247    5.78391153036371   14.04738600373352
C         5.35927590504943    7.20486879393515   13.63601003175649
H         5.86582244840318    7.59603347620017   12.75859086739949
H         6.02749593896150    6.57208314813609   14.22120092781547
H         4.99853433390190    8.01836892030578   14.26618428124142
C        -1.35113139573188    5.16398291884436   14.40942874471405
C        -2.79248636828283    6.96276044402263   14.83007265973002
H        -2.89664228657595    7.98985476371025   14.49315983019334
H        -2.63874149177066    6.92088639998525   15.90884952203735
H        -3.67933992383886    6.38165619238786   14.57785061368937
C        -0.91787801385245    2.39806268992557   13.19969204589734
C        -2.07374389927163    1.89448874977671   13.76749787900851
H        -2.30113065157978    2.10337613221511   14.79935995067066
C        -2.92223622774794    1.12435375980071   12.98311551359663
H        -3.82739796548511    0.71387067735381   13.40089158187326
C        -2.56877808198333    0.87532706049637   11.66633986704370
H        -3.18685257780810    0.26578788659313   11.02819661107222
C        -1.38746324274031    1.40684052630782   11.18112423925635
H        -1.04388543327585    1.21015028839342   10.17837529794206
C         3.63156331594571    3.02673435038459   12.73311655294421
C         4.97898908948320    2.93735697334163   13.02335459254535
H         5.33981419931815    3.21833534789712   14.00032274733712
C         5.84657105599389    2.46076888484645   12.04853116640170
H         6.90172684192464    2.37157833819289   12.24949396142306
C         5.31767649998298    2.08112176935594   10.82498086472037
H         5.94750914920130    1.68327710190722   10.04669713809407
C         3.95601379194292    2.20529844443327   10.61723147799096
H         3.49855263481890    1.88456190796109    9.69485424997257
C        -0.20024684966214    5.05994808346864   12.17142299321724
H        -1.06643011241828    4.55365329143143   11.74562970939560
H        -0.34756525693024    6.14533161445164   12.08230022495734
C         0.88573041190927    4.96640416302509   10.01518268879580
H         1.89789018124254    5.04163280857639    9.61070691418831
H         0.38289139619691    5.92825410895368    9.86484472151592
C         0.15558464579785    3.86252045188102    9.25670421704639
H        -0.84945758512066    3.71851560920598    9.65765841082714
H         0.07692511100295    4.11891778334804    8.19624133770720
C         1.63697251593836    1.40658270630465   14.17628884910897
H         1.70883003541749    1.54379860360252   15.25917738137545
H         2.55142588128012    0.95527857125903   13.80034010181240
H         0.82019112878599    0.72739914924058   13.94854845215626
O         1.04466732232690    6.86976704539206   14.06383555079807
H         0.28811710030182    7.23819695908589   14.54181260916131
O         1.17884565936081    5.17339089010486   15.61145402103539
H         2.03055013173791    5.47700223788212   15.97910059143798
O         3.80243314120998    5.75725865099734   15.22837601058638
O         4.25432688420196    6.43941250209947   13.14709828182612
O        -1.97751638105983    4.46987655910419   15.15721621695600
O        -1.65046252866203    6.43553464734125   14.14836908750422
O         0.82442496921268    2.62779345733316    9.43421699747638
N         0.99883766898980    4.64611078237907   11.44639278215835
N         1.41164418423369    2.68664302290444   13.49943119846872
N        -0.58411993775105    2.16157494880563   11.92328116923924
N         3.12342144226956    2.68392994796242   11.53755943770704
H         1.55787391817169    2.54825525249252    8.81333577655598

