47
CSD_code = UHEGAR | q = 0 | S = 0 | Stoichiometry = C21H17BrCl2N4OPt | MND = 4
Pt        3.51584354811762    1.67031147777300    8.60060952861970
Br       -1.79013788277104    8.80928664101467   13.29762798500240
Cl        3.87744742016580    2.31867755979061    6.40217300860407
Cl        3.15079955578596    1.09623054144897   10.82300311478497
C         4.69867233393715    4.32908450844396    9.02820808982532
O         4.68273388845162    5.60934198202559    9.42509096427122
C        -0.18490237933652    8.30490061825769   12.41219129893466
C         3.41157055509462    7.18450906901909   10.47089942323923
C         0.22977556305906    6.98275592136234   12.44824648467800
H        -0.35596704056120    6.24324643100266   12.97161583463797
C         0.54918103294041    9.26795372305080   11.73936350646276
H         0.20564805293130   10.29045319270022   11.71058050709058
N         3.45404407261550    5.97940632411431   10.03747257824216
C         1.40060662716573    6.62605410015079   11.80936113347828
H         1.74161356590741    5.60387815922541   11.83103540429263
C         7.84192111571194    4.42396624145014    6.99544338165572
H         8.37803197241321    5.11808253241842    6.36569143067632
C         3.21744836373654   -4.36829119870599    5.94893756846601
H         3.75742943140386   -4.81245284576626    5.12633695465511
C         3.47759176449757   -3.06202246016298    6.31195698190974
H         4.21247881720269   -2.47339634039908    5.78441296990376
C         5.96583900544220    3.92284117021249    8.40993026279803
C         8.31752535567763    3.13499656295653    7.17096376655434
H         9.22674966022664    2.82459600390955    6.67816096077859
C         6.45635354991017    2.63087344321410    8.60038718860229
H         5.93610969697971    1.94222087717654    9.26300062853285
C         6.67311975711906    4.82231334850745    7.61600393794503
H         6.28408324811222    5.81751858769493    7.46351563962998
C         1.81769364375728   -3.23920747017229    8.07152354707409
H         1.28420939034178   -2.78774275153380    8.89385120397731
C         1.72123384295472    8.90355367339725   11.10417527422434
H         2.27609565647841    9.65184965602896   10.55812540190229
C         2.77607419114365   -2.49128778551334    7.37926050971629
C         1.56980991890083   -4.54339128694494    7.69260503518130
H         0.83013461014167   -5.12327911952092    8.22369146847289
C         2.16078451164121    7.58220976286646   11.13751573050952
C         7.62833426709446    2.24405964180972    7.97855405879074
H         8.00467356218752    1.24279190409397    8.12248889075229
C         2.26646155582717   -5.10922228284632    6.63507351912664
H         2.06762343456108   -6.12979902778362    6.34464052556450
N         3.25347795056467   -0.07483477420960    8.07110184431431
N         3.70951677759176    3.53618251906434    9.18248476397120
H         2.91580331993313    3.98754472973016    9.65158737493568
N         4.39610322706096    8.10063032282171   10.32523677503976
H         5.27710920978702    7.78735018271917    9.95317875090044
H         4.38528591625289    8.94916602113200   10.86123883343584
C         3.03236436156959   -1.16571008670208    7.75734595785949

