40
CSD_code = UHEHOE | q = 0 | S = 0 | Stoichiometry = C17H14Br2FeN4O2 | MND = 6
Fe       -2.08578437594344    2.17213443958644    8.92123767854072
Br        0.22985284234235    2.12540790540923    8.44420612263960
Br       -2.18607064205765    4.49367956240137    9.11840230842114
O        -3.78221893558324   -1.00188588175044   11.00277475984983
O        -2.07485948381899    0.25312428767169    8.67536696731738
N        -3.97791826158994    2.03456824346346    9.20735866418545
N        -1.78224035833363    1.90769949401584   10.76925336507718
N        -2.31417465493367    2.08116236096211    6.90522968545511
N        -2.00794768915622   -1.48872886003171    7.24313438546434
H        -1.85687882716993   -2.09661388887356    8.03292276557472
H        -1.75792515520534   -1.82991968258066    6.33295903060611
C        -4.42224919826315    0.97146765036866    9.89347382829938
C        -4.87917897566553    2.77857131268481    8.56192833655924
H        -4.49796290366933    3.64733273965123    8.04835505002426
C        -6.22797706147383    2.49150671550631    8.54015025073948
H        -6.90134962885919    3.13674895056560    7.99948449742125
C        -6.68950583076198    1.36703872183051    9.21489698084735
H        -7.73529987393025    1.10252712815983    9.20850443696070
C        -5.76728967598267    0.60358587477682    9.90063987123629
H        -6.04811058174574   -0.27817563896078   10.45514970909835
C        -3.50166523117820    0.15324789222792   10.72343606402154
C        -2.35976097720359    0.84550521698227   11.35301907739683
C        -0.82854186431492    2.55101004802401   11.45016006889094
H        -0.39751642204383    3.42048832357311   10.97633925001606
C        -0.38385350772751    2.15269523478353   12.69307438200448
H         0.39272903878326    2.71568698499976   13.18449895904453
C        -0.93543872736366    1.01771992790756   13.27676406972913
H        -0.59279490862825    0.66111773495721   14.23555142035581
C        -1.94076616817751    0.36598998794494   12.59517628967743
H        -2.42925322684119   -0.51170235588099   12.98909678835588
C        -2.16367540779244    0.82293250922850    6.42909706568320
C        -2.44585161853051    3.07508381216028    6.03824771156025
H        -2.52840904708818    4.06707813510275    6.45917303034063
C        -2.43949033251638    2.88350727712364    4.66684904404896
H        -2.53240142151501    3.73045114202391    4.00750662904720
C        -2.29506884696732    1.59497322744292    4.16918818435325
H        -2.27777274743205    1.41141093173015    3.10609688825655
C        -2.15804569449324    0.54959120085051    5.06332050376504
H        -2.03356519131912   -0.46137289925977    4.70872922060587
C        -2.04556842584756   -0.16274576678262    7.50164665853090

