83
CSD_code = UHEHUL | q = 0 | S = 0 | Stoichiometry = C38H34N5O3ReS2 | MND = 6
Re        8.63832349624039   12.34264357099015   10.04496944110295
O         8.14152266578528   13.40710937963649    8.87652159270604
S        11.00635478093118   12.74865928408910    9.23615785416453
C        11.29697853743510   11.17705298950199    8.56035135066620
N        10.42656379409025   10.52984390700091    7.83104348979865
C         9.12849054799203   10.37144775617718    7.89696658292411
N         8.43551795923910   10.55318144535533    9.01947923425319
O         7.05000521189520   11.55135875978650   10.97421011539256
C         8.47164391654176    9.93859918813760    6.64883735572145
C         9.08994198238098    9.04764712862574    5.77850131303707
H        10.04739867626957    8.62689657809204    6.04616940288364
C         8.46674152714791    8.69378120667902    4.59598846486421
H         8.94315700598413    7.99286698119199    3.92620711381568
C         7.23516058782230    9.23758973579926    4.26960141798001
H         6.75091269739812    8.95981413752462    3.34512491812449
C         6.62753890728674   10.14315264407889    5.12525990925449
H         5.67463334028340   10.57833894904422    4.86449631970021
C         7.23937010402785   10.49485903728014    6.31290938751212
H         6.78292657490198   11.21414375201420    6.97767814895135
C         7.28042225674023    9.86042906331808    9.36056456138423
C         6.87854325209152    8.63162024872543    8.85310929193383
H         7.45569318668392    8.14738836413530    8.07932005941745
C         5.73200741804933    8.03341307846984    9.34612531536599
H         5.41237515456404    7.08594357136237    8.93933092378501
C         5.00024394693389    8.63788358822881   10.35778794909641
H         4.10493107444710    8.16228435034671   10.72989211527226
C         5.41505989050916    9.83367850920454   10.91114017680918
H         4.87046964768746   10.30175623450770   11.71633753777591
C         6.57165494755078   10.45370102660510   10.43366598804658
N        12.53063275131761   10.66389023670063    8.65144170457728
C        13.59091304428377   11.30707256808596    9.39238272129686
H        14.27024892427686   10.52854860867519    9.74831340614190
H        13.15612834420547   11.80670298124094   10.26187369386682
C        14.34337012005227   12.32337264300386    8.53824943419512
H        15.15432765171953   12.76368818794956    9.11110366643195
H        13.66456764232058   13.11160859689709    8.22575944044338
H        14.75860875273506   11.84687727432292    7.65332809792170
C        12.80389605970248    9.37636184823028    8.04461001184340
H        13.87445656952315    9.31987208036960    7.83808902794280
H        12.25693120805593    9.32777740250168    7.09989061688849
C        12.37514118613430    8.22507925461062    8.95081666464544
H        12.60532608979092    7.27284439431112    8.48050845005263
H        11.30484507381311    8.27571130490041    9.13213455215394
H        12.88914462749446    8.27793226581188    9.90848857377835
S         8.76535454758166   13.95811615733570   11.87991388891229
C        10.40889513044197   13.78685459045176   12.39034962255506
N        11.06020066268638   12.65019725790941   12.55558716285787
C        10.70090689405083   11.44468166588893   12.15494074551257
O         9.78962262919282   11.15426626715944   11.33338930557799
C        11.54211794943665   10.34512080146301   12.67467494060754
C        11.18502076314712    9.02607050760213   12.40560620030978
H        10.27593987027613    8.82945525823016   11.85593984311078
C        11.98631450953220    7.98863244443095   12.84287713306658
H        11.70599921975882    6.96641215743257   12.63511443628930
C        13.14865954388930    8.26148216844548   13.54676589359364
H        13.77497456274146    7.44993115090576   13.88744984076398
C        13.50842277518305    9.57401716421282   13.81434918020044
H        14.41552339287176    9.78308136946020   14.36207468915040
C        12.71085518119199   10.61628979493337   13.38255045998874
H        12.97710476134279   11.64375908319481   13.57527298768946
N        11.07780283685324   14.89469581287688   12.76790367073758
C        10.47600482070535   16.16706865979827   12.90205397713232
C        11.08094743378214   17.26139657803363   12.29310539091807
H        11.97837844518117   17.11680497704787   11.71020570549165
C        10.52118549124958   18.51807733041550   12.42525491498881
H        10.98776951877600   19.36390303687967   11.94314728492385
C         9.36233651673200   18.69049178357757   13.16449290801555
H         8.92420375496966   19.67233432559509   13.26107681625134
C         8.76827797453950   17.60188415246160   13.78007786644173
H         7.86922590650336   17.73325065684678   14.36272353387476
C         9.32318153684386   16.34083524053619   13.65785944396910
H         8.86980918705155   15.49331961506871   14.14647150493112
C        12.47262888390111   14.82269432947931   13.00780528830452
C        13.31615051795408   14.23837137264352   12.07085993919512
H        12.90091494282816   13.86337188639994   11.14851863513078
C        14.67349529719721   14.16632826169276   12.32456291708452
H        15.32888915735923   13.70765105681164   11.59939326860077
C        15.19440499933678   14.68806722163016   13.49759092212504
H        16.25489205818942   14.62996178980608   13.69169399587884
C        14.35410865363180   15.29357037954724   14.41742774880136
H        14.75794456288302   15.70890799557960   15.32851533586338
C        12.99375301885037   15.36260138071735   14.17739135337869
H        12.33096095729641   15.82712020407417   14.89217385401357

