67
CSD_code = UHEJIA | q = 0 | S = 0 | Stoichiometry = C34H30Cl2Zr | MND = 12
Zr       12.33505952686963    8.01053287645686    9.13781861149101
Cl       10.73768974922496    6.71750964548185   10.26887503710110
Cl       13.03720048271066    6.05864718768224    8.04211474851591
C        11.00684487744742    9.98832485903502    8.50671900178862
C        10.21938809343531    8.87375420082184    8.08291303978964
C        10.93251054133929    8.20078387674679    7.06241613994598
C        12.15100029915966    8.89501269301868    6.84199645863264
H        12.85400944752412    8.68562203148054    6.04442833526543
C        12.19533200574659   10.00202264383451    7.71936225638071
H        12.95372241786083   10.77552636558992    7.72196386080089
C         8.78848485320959    8.59774634358059    8.44833665317021
H         8.19494629016505    8.49187698936374    7.53902792132704
H         8.37908910896107    9.41911343758560    9.03379279123666
H         8.68503918599041    7.67545753761270    9.02233000666583
C        10.43214126937172    7.00497505894004    6.30648448617915
H         9.58529960785785    7.27865263615498    5.67329711321349
H        10.09757078736741    6.22703685332871    6.99776881454362
H        11.21857705285195    6.59489647024431    5.67456430591423
C        10.64863269906019   10.89959374499976    9.60008144903627
C        10.19275008792410   10.35262117083301   10.78588130601600
H        10.08328013757990    9.27408030018857   10.87114542431872
C         9.89200258483308   11.16198128513249   11.88747179476178
H         9.54199768387296   10.70204900967245   12.80000277449959
C        10.06116243081463   12.51739941615544   11.81687523807929
H         9.85555346812670   13.14490073391830   12.67173819784461
C        10.49646329408710   13.12314794211202   10.62053560921780
C        10.64986087570851   14.52227643686200   10.51905531364661
H        10.44869824737385   15.12660689440103   11.39216279150771
C        11.03181189328522   15.10339096179338    9.34349961019765
H        11.14580359959154   16.17523210970860    9.27437205123198
C        11.25545851128480   14.30984412616428    8.20867365351184
H        11.52346599650415   14.78261070436253    7.27527298508089
C        11.12708982139757   12.95045594305801    8.27661317832713
H        11.27108601920457   12.34943227793180    7.39217563069403
C        10.77253846558129   12.31430351284179    9.48502124475930
C        14.49181743662652    9.04022874558964    9.73538251144442
C        14.60084270646300    7.68897332816205   10.18717060605303
C        13.64999762219876    7.49726927225671   11.21757559667613
C        12.95955944453162    8.72155195679773   11.41654848158143
H        12.25336121762916    8.91795565605543   12.21456614683580
C        13.48225961590315    9.67663523192890   10.51570545237335
H        13.22615922052172   10.72893738916389   10.49233971131847
C        15.68668146466723    6.71200319410780    9.83537162111081
H        16.14269411752236    6.33029878999167   10.75020678193013
H        16.45894511492949    7.19805664168980    9.24143617544844
H        15.30128503806847    5.85860027124069    9.27468098755949
C        13.47201142872547    6.23015414081360   12.00138137345275
H        14.34392325647006    6.04410188124945   12.63234776898106
H        13.35531056010032    5.37646850269109   11.32866968212342
H        12.59113343566393    6.29471762329933   12.63843377008400
C        15.25563767849088    9.61774548908876    8.62325096502114
C        15.36260700526868    8.88888944410127    7.45251630228093
H        14.91183672939741    7.90115997877400    7.39312572483468
C        16.02011721154918    9.41131461408600    6.33273197608693
H        16.08283089872421    8.81692940575607    5.43294562974072
C        16.55579781381224   10.66931482694296    6.36917055099768
H        17.03999625810813   11.08882965392612    5.49943216270113
C        16.49641892916131   11.43872945058729    7.54909640639147
C        17.06670989287155   12.72787439245830    7.61536561803425
H        17.53283795095957   13.13062173624272    6.72732507830989
C        17.04205036650222   13.44784681328714    8.77585072591363
H        17.48108849665336   14.43389816841584    8.81774854654136
C        16.46540175859351   12.89827051400018    9.93045554873729
H        16.48358364438391   13.46125113794934   10.85202939693851
C        15.89272737781903   11.65729406771906    9.89635408991083
H        15.47848743667670   11.22856023530036   10.79569462041580
C        15.86392745767225   10.90369916923010    8.70390215548273

