74
CSD_code = UHEJAT | q = 0 | S = 0 | Stoichiometry = C30H32N5O4ReS2 | MND = 6
Re        4.94099329851238    7.94135090132619    9.73101835486967
O         6.42228635682596    8.03224589043237   10.47077502766525
S         4.19489740915632    9.74350187954178   11.33563713691067
C         3.17351237330568    8.79367626946951   12.37365115699697
N         3.42954830321880    7.56582439344341   12.73037978172313
C         3.99571312101329    6.53697487620429   12.14288411392346
N         4.08199739322144    6.40447360836975   10.82396298025585
C         4.09062564493519    5.19072615280425   10.14764153937121
C         4.55554606095636    5.29765268731163    8.81464051171162
C         3.57488951632814    3.98869516314402   10.61461677300208
H         3.16249052092269    3.92483243247405   11.61079624066875
C         3.59498018396795    2.87538422447963    9.79311134415231
H         3.20825116109002    1.93760175544327   10.16221870036020
C         4.10063630617710    2.95944136142755    8.50371871744995
H         4.11416419357436    2.08164850533395    7.87485080152483
C         4.56989800131502    4.15910874921615    8.00562699126393
H         4.94243150035984    4.24506918340694    6.99678814358978
O         4.92359613045665    6.47629492147781    8.36920578659557
C         4.50628060248640    5.49892194756325   13.05916580579398
C         3.84058371294261    5.19404274558991   14.24174698483388
H         2.90797701096823    5.68936245095427   14.46487003647631
C         4.36670347832044    4.25197542208720   15.10632830947045
H         3.84302740310835    4.00892338666182   16.01928538390889
C         5.56320899640465    3.62257813830279   14.80414184279615
H         5.97206229705432    2.88734639221892   15.48128752021398
C         6.23994151328873    3.94190638951075   13.63727079559863
H         7.18025810550834    3.46334912548125   13.40891496043607
C         5.71698358987357    4.87601871195996   12.76411690372903
H         6.24843462197140    5.14663307105483   11.86300497438910
N         2.12888923861928    9.40218881993463   12.94940818983022
C         1.23805374849833    8.63857727315526   13.80233785494389
H         1.17966545582257    7.61870830008247   13.41629119071063
H         0.24520677781525    9.09069609114316   13.74419234670029
C         1.73061151703357    8.61536943259794   15.24670799711857
H         1.05483712300234    8.02765219104091   15.86216708211734
H         1.78231873698171    9.62335513985273   15.65098992841589
H         2.72255815297316    8.17421487438344   15.28678900129981
C         1.85536144329304   10.81290457763450   12.78275666226592
H         2.80352837387286   11.35066174039915   12.72344885008727
H         1.31911765052568   11.15547519839369   13.67033602099379
C         1.02391971893020   11.08332523379038   11.52984683780204
H         0.81209748259824   12.14548663061115   11.44689763411783
H         0.08256679681465   10.53966437327803   11.56764007821905
H         1.56838891964725   10.76703783729880   10.64448689900106
S         5.45260418608383    9.47114477912026    7.88982148622728
C         4.21817438914356   10.65418044117142    8.23887061980272
N         2.93389141734284   10.35478264866008    8.22040196434179
C         2.38880323902255    9.18208752918796    8.48059530794010
O         2.93715094973201    8.25006572393638    9.12940979310239
C         0.98069108346194    9.01767455266615    8.06568803022336
C         0.31546960147063   10.02654437884989    7.37353912878635
H         0.84443888515376   10.93745941410538    7.14125464958133
C        -0.99949007124525    9.84655375314255    6.99071506314515
H        -1.51490301903258   10.62762846168234    6.45159634082297
C        -1.65833270191678    8.66451414832639    7.29390865706824
H        -2.68593732021069    8.52699781536662    6.99090999974581
C        -0.99955720316904    7.65774647445140    7.98145133082414
H        -1.51186880960742    6.73557537693840    8.21317742965923
C         0.31601451079821    7.83119283348365    8.36659494013776
H         0.84497042410980    7.05319164190255    8.89785139914811
N         4.55838543498270   11.93650103076162    8.34119809432857
C         5.92199244309109   12.39832231577954    8.45798483876876
H         6.05823683845435   13.24662380552864    7.78051464504277
H         6.60703387796744   11.59592882104278    8.18893029405201
C         6.16016335615081   12.84474702791367    9.90814950026666
H         6.06775670153776   11.96977113397751   10.56833657188472
H         7.15123974383951   13.28580147285530   10.01732496062463
O         5.23621745114242   13.84094632954971   10.28569767755504
C         3.59717352125168   12.94113815870907    8.74492409497937
H         2.59424962322314   12.52320941319739    8.67481421839814
H         3.69711501786166   13.80209151992764    8.07665538578815
C         3.91581447747470   13.36496959007517   10.18572851486722
H         3.26716919125971   14.18366591248029   10.50126705176216
H         3.77729281692141   12.49756504491506   10.84653381781751

