67
CSD_code = UHEJUM | q = 0 | S = 0 | Stoichiometry = C30H34Cl2Zr | MND = 12
Zr        2.71328247331844    4.07714126077512    4.68261301062538
Cl        4.06210202125382    5.94061235239480    4.23362880197316
Cl        1.16273209267919    5.65229123589689    5.48520707634178
C         2.98306065325557    2.82315430269079    2.62329908264218
C         2.56580865941726    4.13648499704207    2.22606399067503
C         1.23004416672045    4.31299082490912    2.66626012410945
C         0.82470846956258    3.12637590307326    3.33553115813240
H        -0.17809505533813    2.92579606653330    3.69571996957616
C         1.88427876173098    2.19850695905519    3.27186159517703
H         1.84289741611310    1.16034569958714    3.57558116955849
C         4.31130586726629    2.22503167632283    2.43205547177407
C         4.45601169047251    0.91790025431834    1.96795632982492
H         3.57586569100941    0.34907335001368    1.70386747368588
C         5.71273796161487    0.35551019612091    1.83524569993562
H         5.81071668514241   -0.65785211491380    1.47391319217498
C         6.84271379175792    1.08670975051726    2.16145841435969
H         7.82236462288469    0.64523907842097    2.05830330204568
C         6.71142559781148    2.38645347625287    2.62421994733991
H         7.58770278604166    2.95794359512891    2.89051886393465
C         5.45835221650997    2.95283708526412    2.76496239407691
H         5.36562648056277    3.96362973052458    3.15232763109039
C         3.29798971486407    5.02443643462025    1.25286551394841
H         4.32368483940396    5.21929989703665    1.57489542199717
H         2.78614801949643    5.98699389977804    1.18356267812769
C         3.33819795061197    4.36477727531998   -0.12927296735372
H         3.92107916380249    3.44718020834280   -0.09047167196200
H         3.79279829747946    5.03431270800716   -0.85531354905897
H         2.33368961793685    4.11653325921969   -0.46475061644294
C         0.33379228701704    5.48847139388574    2.38336149221983
H         0.91290353651814    6.41752592634074    2.40153954739155
H        -0.42850039822017    5.55788049651776    3.16462910532911
C        -0.35822907251851    5.34223915125613    1.02486027460995
H         0.37294476484064    5.32907147152413    0.22093299201222
H        -1.04095327534209    6.17166665628630    0.85708216722393
H        -0.92413022939411    4.41389546013314    0.98974841703680
C         4.59047500016448    3.20608226295578    6.06470609408250
C         3.69059349772684    3.96943272328709    6.88804014988965
C         2.46750646488251    3.24383555774818    6.98631316958428
C         2.58924521501807    2.07733477882018    6.19061275764960
H         1.87039308245595    1.27017167287271    6.14395101469955
C         3.88353616026180    2.04932768011320    5.63661718438123
H         4.30911851124310    1.23117210631746    5.06979713569676
C         6.04828658775922    3.34730168324520    5.91366115622367
C         6.83300324237735    2.19233328742254    5.99028720091701
H         6.35829152328545    1.23702065962624    6.15770199056964
C         8.20831090641796    2.25424845904870    5.87995009098296
H         8.79148911872836    1.34704971426732    5.94441727449415
C         8.83869499907794    3.47298719427836    5.69444681839691
H         9.91419486120190    3.52348677092129    5.61001398161442
C         8.07590611866616    4.62590719182537    5.62025294629198
H         8.55652313998848    5.58185531960131    5.47201734312808
C         6.69852184521802    4.56825071068043    5.73001973236713
H         6.12878564884613    5.47888794852707    5.63733610380805
C         4.02754522590216    5.20344475178592    7.68495554523899
H         3.10376909283530    5.71035881815706    7.98040137968981
H         4.60847865013626    5.90702293004438    7.08333475547711
C         4.82767947022120    4.83272789680444    8.93685378939474
H         4.25821853354903    4.14498674369791    9.55788331397298
H         5.05680112557512    5.72099947022680    9.52015460733827
H         5.76111076423538    4.35072195762358    8.65488535579015
C         1.29265486825276    3.54807707530741    7.87859138584608
H         1.23258741661524    4.62308407436504    8.06470243911565
H         1.44274403244936    3.05244334835716    8.84533378757825
C        -0.03284940313159    3.08046284413175    7.27608165361722
H        -0.16475933095092    3.51961596036097    6.28458942231430
H        -0.85868743714515    3.40247335787133    7.90618367787746
H        -0.07252719815737    1.99573513148579    7.19844323790567

