26
CSD_code = UHEKAU | q = 0 | S = 0 | Stoichiometry = C11H8Cl2N2O2Zn | MND = 4
Zn        1.07869511957423    2.95853127029756    2.98413341125976
Cl        2.22479177844352    1.52460247328027    4.14186262201304
Cl        1.34092764737051    3.72929931940422    0.91088398657510
C         2.95280476716962    7.17700018830571    4.30229392593562
H         3.55685048239487    8.06739787082231    4.38907227680176
C         3.24477794215939    6.01077034206722    5.00537675098979
H         4.08539665133195    5.96928212342015    5.67918402492095
C         2.46661204612099    4.88115725988529    4.81414628893678
H         2.69369789714513    3.95241452186707    5.31943489472537
N         1.40765302596181    4.84023574929131    3.99835017850436
C         1.09069346375738    5.96160755743215    3.37420599723961
C        -0.02949316976139    6.21067571979838    2.45748777594345
N        -1.03034334539015    5.40903715040823    2.15242434113358
C        -1.91249668511763    5.86271228375830    1.26547060294286
H        -2.71751408875674    5.18182457803403    1.02479260544860
C        -1.84525572236741    7.11350814502207    0.67170818906709
H        -2.59010671432282    7.40760595138582   -0.05008172661161
C        -0.81714334509276    7.98191901706579    1.02803040428337
C         0.10200275335369    7.51617382181794    1.94778230543013
H        -0.73426331355371    8.97362983673367    0.60994992416052
C         1.27610840600054    8.18475865181786    2.57253390733975
O         1.66978282884526    9.30848016242446    2.40170970205874
C         1.84641946951318    7.14322244007377    3.47747979645535
O        -1.07904818202338    2.87318309842571    3.05757919507895
H        -1.22780477138852    3.79861191823126    2.73499834482794
H        -1.50124494136656    2.28655854893059    2.42229027453940

