60
CSD_code = UHENOL | q = 0 | S = 0 | Stoichiometry = C28H25BCuN2PS2 | MND = 4
Cu        2.27641879379088    6.92960009690088    7.12909993869215
P         4.26072437997261    7.63790765848918    7.87349114239718
S         2.13687243212937    5.16572360587543    5.60673557551868
S         0.40656134014735    7.10461994146003    8.46413459019375
N        -0.71739547116904    6.42378870692086    6.10589450533674
C         7.82807491852143    7.00396219313742    5.05588537025159
H         8.65881829899225    6.83363497514009    4.38684427138080
N         0.68238910424651    6.80208978369254    4.03616984970349
C         5.70090496563725    7.44763025447829    6.77575032402490
C         7.81138091772710    8.13092673822723    5.86231440312405
H         8.62894057020231    8.83618180254943    5.82177430918448
C         4.30684080647019    9.40935684506651    8.28330131564782
C         4.68051668427328    9.91236578119947    9.52349966379242
H         4.99492707677835    9.23894509555465   10.30817323572299
C         4.80112184368148    6.84307918039832    9.41714359982707
C         4.64712803977212   11.27769777107987    9.74813918843107
H         4.93921159958398   11.66808324811893   10.71217520975384
C         6.75165935067991    8.35770951094537    6.72196827620484
H         6.73693706974512    9.23701275926143    7.35108224613724
C        -0.66037574689971    6.25935355140092    7.45429704959018
C        -1.58672941478181    5.68608630616552    5.39588486549073
H        -1.58803849047976    5.86416568811430    4.33001962205889
C         3.85603470142463   11.64242015966209    7.51061223758769
H         3.52903048291551   12.31556063049710    6.73181292539430
C         5.43489698303892    5.63255005899363   11.82622451518307
H         5.68532881495161    5.16056226757431   12.76497108193370
C         5.71530956274685    6.32100703259140    5.95743539176204
H         4.88230621735622    5.63018135794095    5.99552050998595
C         6.77928968427421    6.09933812713294    5.10301018941659
H         6.78965895077473    5.22406651810445    4.47044568191215
C         3.80293357290424    6.59240608136795   10.35700392090738
H         2.78031972980725    6.86776903213946   10.12902450964199
C        -1.54003965054085    5.34010420480180    8.07131445083862
H        -1.47322219274068    5.25153729298143    9.14370092312741
C         1.59527702867723    5.79620876866986    4.13158756335409
C         4.12318781957404    5.99472665167005   11.56111934470399
H         3.34994745309354    5.80490595454632   12.29060798412951
C         6.11422535781153    6.47082867973198    9.68030851262850
H         6.88657479359533    6.65078914565160    8.94568158140386
C         4.24009618002277   12.14210889378469    8.74573610350721
H         4.21489866269859   13.20620149785728    8.92837341964107
C         2.10330995500802    5.21519389746634    2.94708432382292
H         2.81515832338936    4.41448011974694    3.06572886599768
C        -2.43327964599053    4.76591578107097    5.94588029044777
H        -3.10114127327886    4.19884263453488    5.31889359957623
C        -2.41340904311508    4.59262564281874    7.33775675035170
H        -3.07469116495037    3.88350597188191    7.81197959240676
C         3.88213595200464   10.28088479670653    7.28197316983421
H         3.57086221436808    9.87377247254163    6.32762965880197
C         6.42505815808116    5.86701660942019   10.88606345044928
H         7.44534375004435    5.57722449551669   11.09215581056330
C         1.70700533892821    5.65421231032522    1.71773295631907
H         2.09591879136246    5.20762327100243    0.81550470274680
C         0.30881075074516    7.23250655319642    2.81921318401640
H        -0.40988117260768    8.03803327452500    2.81837297885466
C         0.78085160032580    6.70669763103967    1.64968910967273
H         0.44020452046199    7.09259736666947    0.70344072962649
H         1.02889505924918    7.92562123735851    5.92797659301561
B         0.09445933513317    7.49431145963073    5.29829689650158
H        -0.66185467057245    8.35284062455220    4.97405793752984

