28
CSD_code = UHETUY | q = 0 | S = 0 | Stoichiometry = C6H15Cl3N2OZn | MND = 4
Zn        5.04120004269859    6.67555293941941    8.02643476328471
Cl        7.32603102336743    7.60870909369800    8.49037352197229
Cl        5.13187655090154    5.51834563893346    6.14354902057219
Cl        3.85371439999121    6.83506596938855    9.88751662277181
N         4.64085606711149    8.88800277201806    7.11616578112402
C         4.86406838199861    9.71259203341824    8.31691125193882
C         5.87531169704303   10.84527232097123    8.15231596298475
N         7.03218322288079   10.33221045480894    7.40299236210414
C         6.57588124748021   10.11415286270692    6.02227667324086
C         5.62946667163751    8.91435889843502    6.02379039126736
H         6.24668917522326    8.01569947014288    6.08538593724730
H         5.09791902379806    8.86267030598630    5.07278266316405
H         6.09936473410076   11.02836885288864    5.65219118776270
H         7.42679112396385    9.87910706408872    5.38236961202945
C         8.23726548280484   11.17042805344869    7.53671771223253
C         9.04164121143426   10.79678396150580    8.79662984261920
O         9.79081042497128    9.63834929420636    8.61320094565874
H         9.21410324523902    8.85458665954026    8.65355051341223
H         9.76017314948659   11.59821426309830    8.99254389130629
H         8.37137259646984   10.71306106403018    9.66134696046108
H         7.95023684908461   12.22442041008133    7.55412664023867
H         8.88486968601175   10.99287929541447    6.67657356759363
H         7.25021064702469    9.31843582458750    7.82002194184477
H         6.18948211146931   11.17683056352704    9.14190393681278
H         5.45928396704343   11.70309111861281    7.61214285344645
H         3.90606407552112   10.11967884284188    8.64306385486013
H         5.22122645128938    9.07058652503293    9.12434551465993
H         3.73000673995594    9.11414544716423    6.73357607339262

