73
CSD_code = UHILAY | q = 0 | S = 0 | Stoichiometry = C32H29N5NiO4S2 | MND = 4
C        10.46915404816438   14.41322354405202    3.97381808310873
H        11.30879000869229   15.02102248598757    3.64583245319685
H        10.46624171437402   14.38742777895045    5.06369339590900
H         9.54083309736955   14.86901508399096    3.63764310897227
Ni        9.50265109283842    9.10862134578000    4.96734071442493
S        10.53039980969770   10.83408988693247    6.50318437085655
S        10.94288197269815    8.59779576122068    2.36105121800819
O        10.63637567106228   12.26062061477471    6.37317179950556
N         9.99462503464522    7.07080578827008    6.16621419207174
N         7.71532039572711    8.55746791478888    4.75345943971987
N         9.04338998991056   10.24457964917054    6.29474460386750
O        12.27850581612787    8.13171933736499    2.63923171376415
C         7.80222306249956   11.78734859466205    7.66071529284491
H         8.72715762204781   12.22622051409332    8.00180121472469
C         6.66182217559287   10.15572420232087    6.25603580520008
O        11.27991302193722   10.02654574571699    5.53649672106849
C         7.87308299613770   10.73505930210779    6.73322212459670
N         9.88689848928338    8.02928809598710    3.48693929934767
N        12.14948149558545    7.16109201996288    5.33476936607188
H        12.03321614444804    8.16360341229270    5.44879840464734
H        12.68403257890285    6.93824601093666    4.50652778624139
O        10.44969551805591    8.35459671564844    1.02953192966449
C         8.92877256619494    6.34188327126974    6.51390925469949
H         8.16400040865270    6.87528899174938    7.06765241828035
C         6.58714826453081   12.25138467024789    8.10333384673711
H         6.55347331929011   13.06362621827752    8.81432244972171
C        11.82993697698521    9.67127775979597   10.71196932167547
C         7.63417108361595    7.47857511343475    3.87126262390257
C        10.98363622703240    9.05750184442902    8.53554801305273
H        10.62664216248668    8.32138799673114    7.82820603132502
C         5.44029614413589   10.65418303670250    6.73838061270063
H         4.52284086217002   10.21118261827013    6.37789759366476
C         9.80028624436403    4.37808275386701    5.49648201124016
H         9.70863832048688    3.33956256787977    5.21448866273991
C        10.92625321743182    5.09254684587019    5.17077119440398
H        11.74499128706695    4.64228521739064    4.63249387270195
C        11.00955423322489    6.44977362276196    5.53139562115992
C        10.83088121138366   10.35050032358578    2.71729053243173
C         5.39679499261930   11.68295185499027    7.64629078002182
H         4.44974454970042   12.05422010885981    8.00594784391606
C         6.53251965120853    6.64509844083883    3.68188015042984
H         5.64105243235148    6.76061955765537    4.27955526298266
C         8.78028429982278    5.00724570712150    6.20851461628371
H         7.89218694604905    4.47073568189150    6.49969406803934
C        11.50680775770249   11.35693847704343    9.01950112037677
H        11.54997358127247   12.38018096074605    8.68008418281581
C        11.05756040301917   10.38289270088436    8.14802376394917
C         8.82451728567441    7.25573610348086    3.13740894540452
C         9.56668242581594   10.90028302114995    2.89872906286930
H         8.68152525697683   10.31302600695425    2.66446876942173
C        11.96709873385529   11.11334966895302    2.89081788241472
H        12.92980454934786   10.64632620574148    2.75377573918563
C         8.85493739001170    6.24865989934517    2.16765400624813
H         9.75647741606274    6.10371979283563    1.59686795004447
C         7.74337079444409    5.45838534726370    1.97585252210108
H         7.77205208540240    4.67016907156977    1.23847339209564
C         6.59298602297416    5.64022008796853    2.73897274309676
H         5.74430519969959    4.98893298482254    2.59597471724095
C         9.45670221450610   12.22958430200561    3.27893155847712
H         8.47906114230276   12.66555491233538    3.43159837114382
C        12.26893049803108    9.27759925568687   12.08796834570190
H        12.22019000375641   10.12203191499715   12.77049239134740
H        13.29992346099648    8.92468552733445   12.05846273547633
H        11.65144339311060    8.47065784194936   12.47503758756938
C        11.37208712660475    8.70847486090665    9.81623825193438
H        11.32046347641742    7.67520392602637   10.12616852512199
C        11.89276987825212   10.99809846628122   10.29907350488836
H        12.24582707006340   11.75495273269532   10.98404895508435
C        11.84426755504503   12.44042658517738    3.26472895482420
H        12.73061724064803   13.03954698369005    3.41415851760083
C        10.59327572927510   13.00663871604161    3.48272256639211
C         6.66527342515894    9.09247474945763    5.30660335139429
H         5.68317172695721    8.71302088800389    5.02965176584539

