71
CSD_code = UHILUT | q = 0 | S = 0 | Stoichiometry = C30H34MoN4P2 | MND = 10
Mo        6.93948928754420   12.83334298595379    5.28246613903543
P         5.39871537206158   10.96482213745787    5.41095331273642
P         5.57118483340451   14.08631038869539    3.71895656813920
N         4.31512385354409   12.55050564527310    8.59230039347270
N         6.71052734181603   11.19339690354402    9.27881368799656
N        10.44581347407581   10.70989909224297    5.92130200359627
N        11.06507097061457   13.46931004878729    5.73264514455028
C         5.72953983532802    9.63891979463628    6.62684565486455
H         5.32091185767563    8.69634764215165    6.26098264447631
H         5.25394060306993    9.88280890597920    7.57404317585139
H         6.80033887839299    9.53852707743607    6.79182943008215
C         5.30522774221017    9.93527478558381    3.89340496153693
H         4.51820718108654    9.18983119335201    4.01287448346330
H         6.25337062535810    9.42821408487556    3.72849163017799
H         5.07943336071402   10.56311944994906    3.03373937136407
C         3.60372193402345   11.19709732429777    5.67482190504094
H         3.14229520682013   10.22277716845718    5.84233885793434
H         3.16830792239480   11.65372003361111    4.78748820077987
H         3.42991232617495   11.83174573073206    6.54229467834034
C         6.22481885133096   15.74515666847003    3.27005779964379
H         5.49368728927310   16.28722988668428    2.66980409511196
H         7.15902474994705   15.67322564381251    2.71954646606758
H         6.40913978732069   16.29508203159581    4.19195810080488
C         5.17297745415662   13.41669956883681    2.05583527387461
H         4.77133643340744   14.20934797985675    1.42386085704182
H         4.42156193936416   12.63670558728623    2.17398792804198
H         6.05494282423876   12.98873949934091    1.58345704586315
C         3.89075483152160   14.64383605823013    4.19269765511705
H         3.38271867600197   15.03919645575651    3.31231813124625
H         3.97250237444416   15.43239813806563    4.93828106206428
H         3.31661369129037   13.82073373417601    4.60795642487021
C         5.44864940348987   12.76958832198060    7.97696374471782
C         5.55618495771495   13.69186370601321    6.86005161643321
H         4.63067965385201   14.23976330084222    6.68465809577626
C         6.77792138486983   14.45468338804812    6.76109409471249
H         6.77569785173908   15.53185270115520    6.62123001265499
C         7.94425063329734   13.76147205684044    7.12956741951988
H         8.90766509551487   14.25915365287928    7.14774279466935
C         7.80549948203896   12.41065976724272    7.50497576317392
H         8.70456794620061   11.85106534778506    7.74778688845739
C         6.65418998101146   12.06891338838467    8.30814069093592
C         5.54605406800339   10.95251986997592    9.94029337379831
C         5.52703637699743   10.00751410953821   10.97835029037765
H         6.45252441365141    9.51396050251172   11.23201051343055
C         4.35750254724208    9.73495375020350   11.64009237363765
H         4.34599444819247    9.01039237635634   12.44153271166448
C         3.17045762849953   10.38769823885111   11.28775949563368
H         2.25943512213485   10.15803732787299   11.82144546494843
C         3.15832334859322   11.31419677161567   10.27666664045253
H         2.25445063121929   11.83194043424871    9.99256858617348
C         4.34216904437946   11.62064067429246    9.58939257529362
C         9.66319124564648   11.56182389020248    5.31236753446660
C         8.38255703217057   11.17118761359112    4.76146400062994
H         8.17128417260891   10.10732375543183    4.85805344691185
C         7.95232288055219   11.82009165481272    3.55875523516271
H         7.55772903389017   11.26846888593691    2.70865564263270
C         8.31912991288656   13.17351838575057    3.43690740019507
H         8.09341752654969   13.72182882098012    2.52696523194034
C         9.02023084377320   13.76699911429561    4.49616298508511
H         9.25666953423805   14.82634194900696    4.43315643475485
C         9.98509804863701   12.95481679082286    5.20307321772197
C        11.88622136421254   12.60393232464116    6.38713650699394
C        13.05973078298386   13.08815058075142    6.98539340729780
H        13.27230795510175   14.14389082053812    6.91048871724709
C        13.90426920049653   12.22668346892420    7.63662766169882
H        14.81042899212004   12.59945252283702    8.09219387284832
C        13.60557871510852   10.86121596983165    7.71771355197700
H        14.28603446013161   10.19976841597109    8.23442571507126
C        12.46223116795919   10.36177297889123    7.14946686800394
H        12.21184725406992    9.31330385339075    7.20313231001736
C        11.58095434962172   11.21883687160652    6.47248402969182

