66
CSD_code = UHILON | q = 0 | S = 0 | Stoichiometry = C23H39MoP3 | MND = 9
Mo      -17.13089044314091  -11.02128377282917   -7.18539329011887
H       -16.94648511378153  -11.34903534539618   -8.73455170655063
H       -17.39041069061880   -9.67632365953121   -7.99540705644011
P       -17.82810219676274   -9.31980482023052   -5.61824208425619
P       -19.39796509330131  -11.40805275759948   -7.93203330408409
P       -14.88078907083857  -10.19839812800326   -7.55345522856674
C       -18.88318566361154   -7.97959650142033   -6.28420459175906
H       -19.05535246213792   -7.21020655636396   -5.52996122353107
H       -19.83789775178140   -8.39971065576174   -6.59650727668918
H       -18.38750332892776   -7.54537701364633   -7.15170139546166
C       -18.82777712289078   -9.70388969531596   -4.11990684861620
H       -19.09612108505921   -8.77581736941473   -3.61380752225071
H       -18.26747981488470  -10.33288591503517   -3.43154118901209
H       -19.73560747162508  -10.22766198640529   -4.41490298546565
C       -16.55322417035692   -8.25916095723042   -4.82586581569200
H       -17.01910702834917   -7.50983409523289   -4.18432096048518
H       -15.98474536709384   -7.76517930659018   -5.61250757754257
H       -15.87558252780176   -8.87095943558262   -4.23405046086982
C       -19.93626802377418  -10.15996070070968   -9.15152556384261
H       -20.95135656641897  -10.36284579399176   -9.49644444529928
H       -19.23626871007247  -10.21595305753696   -9.98428375066807
H       -19.87873774685135   -9.16320109654511   -8.72215393728315
C       -19.72253851623113  -12.89527680687119   -8.96554939496433
H       -20.62332392591317  -12.74690924248439   -9.56196674493064
H       -19.85336736424697  -13.78194984650384   -8.34759353388092
H       -18.86630547764862  -13.03923304099676   -9.62274103817839
C       -20.89207222370976  -11.49954410272246   -6.85955670429841
H       -21.77304684577944  -11.73062179780129   -7.45871284138089
H       -21.03721486525420  -10.54650101927215   -6.35331940795287
H       -20.75041830883863  -12.28074091492236   -6.11236191805553
C       -14.90621249847042   -8.59035795555317   -8.43213181423754
H       -13.89567918579476   -8.27145679976232   -8.69095014509692
H       -15.38535103071377   -7.83355618031855   -7.81324874190034
H       -15.50006386945302   -8.72466645261601   -9.33535986908215
C       -13.91418777684150  -11.13678167446847   -8.78772073222076
H       -13.02364413147192  -10.57650627847337   -9.07546533212229
H       -14.55108021728573  -11.30074401445960   -9.65483868075253
H       -13.62067033898936  -12.09689832543909   -8.37024359392421
C       -13.53579878457548   -9.85759858989055   -6.34830367498995
H       -12.73654685412288   -9.31225061139190   -6.85020472548754
H       -13.14392219525463  -10.79686442750975   -5.96575981864378
H       -13.91151859713187   -9.26694615033657   -5.51657148672290
C       -15.07859021649254  -12.45364107606253   -5.25498464945570
C       -16.31559440852065  -11.68853819929206   -5.15102843954828
H       -16.36746883748726  -11.09442783631556   -4.23497795474900
C       -17.52077301223522  -12.38818230060813   -5.50190257382574
H       -18.38106399961063  -12.45670224382056   -4.83961450572558
C       -17.40701920334331  -13.18926963074727   -6.64810329281740
H       -18.20145786471094  -13.86406744942541   -6.95149554574707
C       -16.14854875971635  -13.15624075534939   -7.30196773633933
H       -16.07084925000648  -13.72730720121423   -8.22712361272202
C       -14.97323232001242  -13.21950137487757   -6.44504183736367
C       -13.84877766693001  -13.96490007946346   -6.68731591560996
H       -13.76510707078266  -14.55829980364980   -7.58933949657930
C       -12.77663017269963  -13.96624241250626   -5.76724207990955
C       -11.59662045201736  -14.69793182480433   -5.99893396569655
H       -11.51319184237561  -15.26898264702216   -6.91383334677776
C       -10.57445006674380  -14.69390930931573   -5.08834701712580
H        -9.67514161062241  -15.26338932937590   -5.27578689951807
C       -10.68688692553942  -13.95180977511925   -3.90562663491068
H        -9.87316070474347  -13.95724326054583   -3.19423265332204
C       -11.81980140944653  -13.22574061982782   -3.65329497506777
H       -11.90949392581687  -12.64989222196060   -2.74176889724813
C       -12.89062713595145  -13.21320964899615   -4.56646486717959
C       -14.06966310055171  -12.47050246017522   -4.32901594104719
H       -14.14872958584831  -11.89362568730336   -3.41558874835133

