43
CSD_code = UHIMUU | q = 1 | S = 0 | Stoichiometry = C14H23O5Pd(1+) | MND = 6
C         0.48793029981476    4.39802627788641    6.24606770747122
H         0.70560918548763    5.35368743259671    6.71881653996147
H        -0.44980546115082    3.93300674005670    6.54304440331821
C         1.48880489239781    3.61005801438223    5.73221360087297
H         1.31033878135911    2.53822518898755    5.61189106984239
C         2.93367266326918    4.02758928773872    5.58950502686323
H         3.50036416730779    3.66015408383791    6.45020975155489
H         3.35053930647437    3.54044226486392    4.69921577594387
C         3.07175361631076    5.54993111922687    5.45124457465348
H         4.09744701468399    5.79141706914930    5.16735034081168
H         2.87524027254134    6.02096076535499    6.41555433186092
C         2.10251895607061    6.07623857941113    4.39750584148120
H         1.51278305876288    6.94455563932597    4.74158692161553
C         2.71897460528811    6.36934074652395    3.04718274274938
H         3.39337583412806    5.56577385271992    2.73880291221652
H         3.30169086469881    7.29412688588329    3.11865914945494
C         1.60421870154689    6.56172908358846    1.99504131489916
C         0.58077843983192    5.44367965991550    2.09271605080482
H        -0.43647509401224    5.70603738888347    1.79650965622497
C         0.97237051542827    4.12670463256030    2.06673898755514
H         2.03168101888798    3.87174162327176    2.00149501471342
C         0.02409630110523    2.99492633424437    1.82369498287299
H        -1.01454947515494    3.32782788262165    1.84771070334170
H         0.17832622526111    2.19172936448478    2.55444885216908
H         0.22841605106254    2.56836004518263    0.84076719309269
C         0.92530080374977    7.92267715462331    2.18996759443056
C        -0.68828407073308    9.37451457691530    1.31216284015420
H        -1.11716689046541    9.54451246005965    2.30091430024484
H        -1.46614337894656    9.32316826322395    0.55565916850323
H         0.01199595538574   10.17966290092828    1.08758613271292
C         2.25864420350872    6.50834016776598    0.59393276931067
C         3.24984104091169    7.80626349545994   -1.08335581701434
H         4.23274786619245    7.33636169263074   -1.03133657793869
H         3.34477005739390    8.86689302223224   -1.29751363413638
H         2.65575478991854    7.30715185996563   -1.84962560974801
O         1.19986634377935    8.69019903332547    3.07164441335396
O        -0.01344669431569    8.11712151734396    1.27448684654628
O         2.45944387669511    5.48135706013568    0.00917796726701
O         2.59558582016598    7.71485630485022    0.18454492976840
O        -1.92316535577910    4.37759999877982    4.03077086659625
H        -2.35635502147065    3.61598994934088    4.42807009233109
H        -2.48264761817913    5.14313153261874    4.19972911524901
Pd        0.56085753078566    4.74782904710252    4.12561115602720

