85
CSD_code = UHIMED | q = 0 | S = 0 | Stoichiometry = C30H32CdN6O10S6 | MND = 6
Cd       -1.14573620494703    0.00134308957147    8.55507754708948
S         2.13846476377496   -0.13385007749580    7.51214710415111
O         0.72065202550814    0.31598605562286    7.48586064965320
C         2.74992062686145    0.28540781618313    9.18157031906046
H         2.18152166001469   -0.31037826930727    9.89037129285680
H         2.58491778338138    1.34570920967308    9.35242400856488
H         3.80411276782836    0.03828573456173    9.24202459912411
C         3.03468662470447    1.20259384949437    6.63311952278060
H         2.61657606989847    1.28458104964676    5.63456997307630
H         4.08692636135462    0.94825516095402    6.57966254182066
H         2.88067283635005    2.12993045697160    7.17677121285422
S         1.25593557253631    4.54474547983601    8.56453184707355
S         1.96256556795479    5.79356332928614    4.60609214484621
O         1.15389807013740    5.37649197005203    9.72686771689446
O         2.10173294602996    3.38110946227907    8.66769570823276
O        -1.81004785467682    1.86375974691754    7.88022456916460
O         0.52996760229592    3.10445331522211    4.66735628704898
N        -0.24126248936221    4.05328639840849    8.10321451643751
N        -1.16236813697540    1.47226575689195    5.70205768417135
H        -0.57170263785051    1.92848219700647    4.97015211951299
N        -1.88396881604168   -0.58801644839736    6.57527293764318
C        -0.28075950068396    3.33545641049935    6.87500064437658
C         0.51341442984435    3.70573433468179    5.77302735149033
C         2.73658431780978    6.90558558768273    5.66634403033287
H         3.28548398696782    7.72901922618040    5.25506896932564
C         2.55782270460760    6.59514765844649    6.98023956099107
H         2.95700150804272    7.15108567134758    7.80792369876521
C         1.36090344092918    4.88779177986743    5.94879699838643
C         1.77248852367733    5.43891348836224    7.13254082042207
C        -1.37433359711593    4.88475726736736    8.44265218861360
H        -1.12385440432103    5.40158251671395    9.36583270644351
H        -2.24419806298753    4.24655308126457    8.59575002778373
H        -1.58850949722253    5.61722608803765    7.65646606618805
C        -1.11732302015218    2.18058191159964    6.88592331494429
C        -1.49238720434206    0.15878145695208    5.53461806285560
C        -1.40789410459073   -0.38212141311229    4.23720575739862
H        -1.06688756548406    0.24682795861069    3.42975826038264
C        -1.75437407493792   -1.69651797180692    4.03307397250614
H        -1.69855441574475   -2.12914732367418    3.04493040975612
C        -2.17821575672637   -2.45995475321224    5.11945404021812
H        -2.47157830446199   -3.49107034494916    5.00967306995981
C        -2.21312435991038   -1.86370206864616    6.36220997955392
H        -2.53111184517360   -2.42209977412943    7.23249688001484
O        -3.01165867339053   -0.31364221839650    9.62618926885285
S        -4.42981638920894    0.13537757379690    9.59913340049978
C        -5.03920835636075   -0.28180228622450    7.92847333979888
H        -4.46956808632584    0.31467065747139    7.22125388758435
H        -4.87454130986656   -1.34195037687199    7.75639228164057
H        -6.09318632684410   -0.03406920149485    7.86686670175546
C        -5.32605082511173   -1.20288136434513   10.47495707202397
H        -4.90992695176496   -1.28543521511083   11.47422187489511
H        -6.37855068338442   -0.94958799973141   10.52660117619419
H        -5.17042923736529   -2.12965499854441    9.93074408443825
O        -0.48087923959838   -1.86165013189328    9.22724472782093
C        -1.17214708835267   -2.18009373959300   10.22202462162626
N        -1.12634085935916   -1.47293077385368   11.40655014464727
H        -1.71540559848227   -1.93064730273918   12.13880337074351
C        -0.79693205702965   -0.15946139666261   11.57524598656863
N        -0.40751050299964    0.58918934108770   10.53509726107780
C        -0.07936199151139    1.86494097949102   10.74944098486068
C        -0.11291963119771    2.45933397189077   11.99311650654032
C        -0.53429921865607    1.69391414187896   13.07905697912202
C        -0.87994712319884    0.37952207193532   12.87355365319475
H        -1.21928798140823   -0.25087972363806   13.68057736270004
H        -0.58911863238942    2.12509823837222   14.06789414938699
H         0.17965918819857    3.49054895588497   12.10405801669905
H         0.23715757003590    2.42480859221337    9.87945722592853
C        -2.00760007917459   -3.33576776232860   10.23270800344534
N        -2.04812586796738   -4.05223759062716    9.00377234912303
S        -3.54542073105397   -4.54418778789588    8.54349242158132
O        -3.44406343772718   -5.37473281107772    7.38021931843439
O        -4.39207840479513   -3.38097754870833    8.44222655094748
C        -4.05970897736531   -5.44024427241814    9.97508767834420
C        -4.84398428870355   -6.59727683361157   10.12677917636147
C        -5.02051915168085   -6.90989917549678   11.44045113720056
S        -4.24577407602769   -5.79890812972814   12.50125495117924
C        -3.64671478733285   -4.89065513590878   11.15906156256366
C        -2.79985329628195   -3.70821722648551   11.33535002610553
O        -2.81522842624914   -3.10846355000623   12.44184787173707
H        -5.56819331407294   -7.73438076191819   11.85126647205852
H        -5.24401522713012   -7.15220852979124    9.29882718929568
C        -0.91422697226274   -4.88097362045130    8.66054260647582
H        -1.16634221837457   -5.39780834934023    7.73781069672802
H        -0.04617433734625   -4.24082021098183    8.50521324166773
H        -0.69616473767382   -5.61339456955381    9.44568355537096

