42
CSD_code = UHIMIH | q = 0 | S = 0 | Stoichiometry = C15H15Cl2N3O4PtS2 | MND = 5
Pt        7.49794873227553    2.77400785947821   12.01579198259064
Cl        7.65509086174399    0.59030282909658   12.84985962094080
Cl        7.59802298109355    4.94443625217815   11.21234051617400
S         6.69560971641815    0.74661833603944    7.91515169660947
S         8.84131858188932   -1.09159380954771    4.75664316566608
N         9.46844228177542    2.94980156992495   12.32609480098514
N         7.95292663612739    0.36661962648480    8.95604719766590
N         9.71339984337179    1.76518640248742   10.38759450418704
H         8.69125349628325    1.66199962663301   10.49077002935478
O         6.81683087019811    2.13496746454919    7.60662739934337
O         5.47153163912611    0.26827888427107    8.47777899695446
O        11.40933599090395    1.39536718670726    8.88736643570671
O        10.73781218076366    0.46030601943628    6.56076519362836
H        11.33415631342313    0.84156052361249    7.25735472062796
C        10.31475965645852    2.45703221561658   11.40831397240157
C         9.22989514872896    0.61470051630426    8.39340580672671
C        11.69391858331580    2.63890713478599   11.52273953888239
H        12.34082861265128    2.24239049318962   10.75826301777466
C         9.53269300161011    0.29246416482342    7.09364484126377
C        12.18139353707378    3.33422488359424   12.61035067376124
H        13.24323216674884    3.49002931537624   12.71956389562152
C        11.29386091928358    3.82956360581325   13.55928203863038
H        11.64308028817010    4.37426693116245   14.42055343183818
C         7.16325794709719   -1.34504313103233    4.50435782013161
H         6.83714335866307   -1.87934460693058    3.63415137650650
C         9.94252799268338    3.61886996741213   13.37475698307609
H         9.20757989194379    3.99514596195475   14.07715218984985
C         6.38755915221618   -0.80821431392853    5.49031878381403
H         5.31513995540511   -0.84969190110338    5.52157929494263
C         7.16552563463979   -0.18615562420998    6.47701449024023
C         8.51531274501849   -0.25344019477632    6.23307188600095
C         7.81343402573697   -0.88580307956841    9.68420505339649
H         6.74948601313795   -1.03474469727132    9.84850169901505
H         8.31292856465655   -0.81660734593084   10.64995012766901
H         8.21781867799973   -1.72972139475760    9.11783091164820
C        10.23350806720991    1.27461314587009    9.22646922117568
C         5.60112233028110    2.41104386001110   11.05066461416879
C         5.36662119231039    2.88389598011343   12.32146914188493
H         5.51365977362187    1.35167628463124   10.82537396768650
H         5.54784160427762    3.07336894099552   10.19062068209101
H         5.11284402452217    3.92923789225033   12.48007525369923
H         5.09064700916722    2.19767622426429   13.11883302566642

