79
CSD_code = UHINAC | q = 1 | S = 0 | Stoichiometry = C38H36CuN2P2(1+) | MND = 4
Cu        2.92050701033622    4.97555188593165    3.08744773300100
P         1.69966450221380    6.85198853560037    3.24873633689837
P         2.03183641454326    4.15697604145153    5.07246094025972
N         2.64711467247368    3.39590021395489    1.83878049545632
N         4.84221151773942    4.59669107607300    2.69060121965884
C         5.01101575113699    3.46882873357300    1.98785809374465
C         2.78645712597825    3.82625894912343    6.69719133748016
C         2.43750665384251    8.13374407102323    4.30795164355917
C         3.78624974795702    2.70239444865597    1.71668522597979
C         1.05297461508200    2.64936694866029    4.81309014277125
C        -0.30290680956067    2.62835961111601    4.50892885721164
H        -0.88207140459607    3.54036765608907    4.50995232377468
C        -0.92510837639056    1.42798756306716    4.21110718950905
H        -1.98185671910402    1.41463696859935    3.98877901544952
C         2.57150989896115    0.70715462852708    1.14159628191537
C         5.89311701295572    5.35848669752238    2.95910685114689
H         5.69437272542396    6.26016472557196    3.52253404575610
C         2.04475581934607    3.33843318328872    7.76887680560895
H         0.99301371365134    3.12234073651281    7.64301566254052
C         2.72329844076716   10.37932134158317    5.09770670696676
H         2.47565928454912   11.42849159092822    5.03993936439831
C        -0.33579415783679    8.45764704018923    2.05961245353581
H        -0.84278262757281    8.49678767661950    3.01275712336839
C         7.17149473066370    5.03708783494076    2.55004615071069
H         7.99886792673356    5.68438348390266    2.79350471554913
C        -0.20029798941650    0.24859801517350    4.19730273638741
H        -0.69227810169730   -0.68385390654196    3.96569008098672
C         3.77940431943417    1.35449157089571    1.37697842642431
H         4.70296828161328    0.80048704521794    1.31918030703478
C         0.30657611237742    6.27121719395018    4.32811358900781
H        -0.27466117988099    7.13042788591219    4.67894389709623
H        -0.33325803814049    5.65664261350186    3.68518703923159
C         3.38053868391157    7.69528463927410    5.23534546289275
H         3.64121347290508    6.64148732634233    5.26103320418408
C         1.49067066832809    7.71549374465101    0.67695778659869
H         2.41156660621434    7.15328024684754    0.57959104730617
C         4.14476032033679    4.08155170573922    6.85091839680750
H         4.71545213943838    4.44219036694296    6.00350791505129
C         3.64243180640958    9.93619525083233    6.03482764296842
H         4.10682182893486   10.63998699290326    6.70837321748506
C         1.40411393442570    1.46277683039604    1.24126962179039
H         0.44237709145177    1.01392724858456    1.05183731201479
C         1.49309955135415    2.79375688591005    1.59667420916381
H         0.60996376215295    3.41165484636286    1.68680893046973
C         6.26776576311507    3.08432828733791    1.53208998460853
H         6.38106636357241    2.18835753159062    0.94283215575256
C         0.80860344447272    5.47329512803733    5.53133742011697
H        -0.02740946698870    5.02720614995953    6.08020050153763
H         1.33930004140878    6.14434933539823    6.21640212336394
C         7.37854044886701    3.87107449321030    1.81152596615659
C         8.74277518525002    3.49673315369353    1.34357434964245
H         8.71813402391370    2.60700021993558    0.72085582838876
H         9.39107738299883    3.30776730958603    2.19843944753570
H         9.18333890045278    4.31412362508442    0.77531015782893
C         0.85752821285886    7.75494545175320    1.91737751428909
C         4.75724381648303    3.86488454280307    8.07231589699898
H         5.81187889608965    4.06360790264597    8.19147058080940
C         2.52216391093151   -0.73719744508095    0.77673072373190
H         3.42686187975581   -1.25332159276208    1.08671353982469
H         2.42723283114069   -0.83860468156871   -0.30471425381784
H         1.65893762744451   -1.21825670422484    1.23033086652320
C         1.78068598394401    1.45958106382373    4.78296133613870
H         2.84069688343036    1.48594105929079    5.00479721215100
C         2.11862093016506    9.48424719740287    4.23208824125447
H         1.40787856454222    9.83403749316206    3.49733810765824
C         1.15647026231525    0.26559556646254    4.48403669031187
H         1.72448133257114   -0.65270444535543    4.47377532492249
C         3.97408445081311    8.59160368171529    6.10280083827501
H         4.69645148375939    8.24642455197073    6.82769972145150
C        -0.87687045913701    9.11733553428214    0.97067686777723
H        -1.80122416474830    9.66408093681896    1.08257714743885
C         2.66245348075728    3.12291194296864    8.98630097067291
H         2.08902788185583    2.74492108990416    9.81926522737515
C         4.01480158289298    3.38840389842691    9.14000063904053
H         4.49102657774911    3.21761101993675   10.09332775788733
C        -0.23820652943941    9.08213351264965   -0.25889619358816
H        -0.66718537487910    9.60107084332873   -1.10233436035975
C         0.94700673053541    8.37985236032698   -0.40658753605608
H         1.44269038158693    8.34911184005508   -1.36512833469242

