79
CSD_code = UHINUW | q = 1 | S = 0 | Stoichiometry = C38H16CuF20N2P2(1+) | MND = 4
Cu        6.62535964961755    4.19285430092158   12.25248619340618
P         6.10082079940301    6.24114385187146   11.19252270352921
P         5.64611309676703    3.04493734813797   10.45521340386809
F         5.75937196920138   -0.28453628699051    6.45212226602968
F         5.32470882604624    0.51882055362367   11.60564390640541
F         8.25189312570003   -1.16578953511300    7.11835473959805
F         3.73282044828314   10.86884971318833   10.82494869385032
F         0.41365592164329    2.43559219533210   10.34379335703891
F         4.56207247658131    1.64303202351238    7.94556314206275
F         4.93034460369165    6.53535182237423   13.86803017668446
F         5.20497878612169    8.83214064146373    9.79303862492672
F         3.42968927393646    8.54551049852103   14.92555286428293
F         7.69654747367216    7.99517964890200   12.66879470068572
F         9.42653367794290    8.05636220800579    7.53167830025377
F         3.11066052147096   -1.00278822923120   12.13166009601079
F         0.63797183809917   -0.03564115163575   11.47822623323255
F         8.29199034105338    1.80054147125844   10.77873976663415
F         9.53062944491874   -0.11059301220154    9.28951995341425
F         2.60437435892528    3.90502155631861    9.83854538003275
F         2.83606916041583   10.72998402017802   13.39530368608776
F         9.79902352285397    9.60651548688157   11.97582873784742
F        10.65378680128289    9.64414220148243    9.37816955491331
F         7.36684860375926    6.48212416992116    8.24331499754449
N         8.51533195163988    3.99651156797994   12.94527587795826
N         6.14662648256003    3.68589377261918   14.14513342432719
C         5.78573193907542    1.21411100738146    8.26958388885227
C         4.02333495258182    2.20287271689200   10.65198433622160
C         7.66545019191172   -0.22846512820203    7.84320705853206
C         1.72144112166876    0.67796830987604   11.21796953485223
C         7.92266694325949    7.27423292219066    9.16413706309201
C         9.18998929800804    8.86747843059594   11.05641970413727
C         6.41934193885812    1.76885772267991    9.37698331109824
C         5.07493273121811    7.63950579446470   11.81206157875565
C        10.88171464325627    3.90553390794483   12.84702114153108
H        11.78287608365876    4.02304670722949   12.26733971386850
C         6.39008990012977    0.22528267315093    7.50130548900431
C         7.44297187458094    7.26718125131620   10.46806324364224
C         8.31617588521366    0.30956791997094    8.95329263449183
C         9.62960473253058    8.88394024149705    9.73094410425430
C         4.93044987599273    3.58152013104092   14.66139150977686
C         3.86008420077633    8.62689602249496   13.67149352428598
C         4.10210432392748    0.95584031923241   11.27007984328779
C         7.68149869873911    1.29136935373499    9.70557404831476
C         8.11936163663398    8.05532048915232   11.39746182454198
C         1.60934818859002    1.93860023560040   10.63436350509956
C         2.75286592810591    2.68681969312874   10.36548980068309
C         2.98512195251108    0.18276322424831   11.54756367943865
C         8.53919823681663    3.63324808346093   14.23560317080719
C         8.99762076779526    8.07553395201697    8.78761448636331
C         9.64026854354556    4.13159454306445   12.25770287099218
C         7.23420265962089    3.51136964716105   14.90959448532382
C         4.76332960265427    8.76258003891373   11.05257623680585
C         3.75823569970371    3.77741139627355   13.75649185849670
H         4.09524030732331    4.11136996195423   12.77384510415342
H         3.08353356108227    4.51965619160037   14.17671275559509
H         3.20555801175533    2.84449874583192   13.65287692806302
C         9.74644608551806    3.38306608077106   14.88093203660382
H         9.77701238474852    3.07699638232032   15.91206940968453
C         5.02648801407136    5.72686605969508    9.77759458395912
H         4.01498155053246    5.69182361774316   10.19386388784506
H         5.03385806404454    6.48143566481243    8.98763517839338
C         4.01216404895884    9.81039016574916   11.57347490821928
C         4.62020141847858    7.60017157050372   13.12360667134603
C        10.93051214807087    3.52282685225169   14.17384611178228
H        11.87682001142195    3.33261330700124   14.65562519062701
C         3.55446870344194    9.74140674823694   12.89069659084442
C         5.39203602822410    4.36482876341943    9.18557822428639
H         6.34831412572176    4.43293354471026    8.65740166209977
H         4.63203548658307    4.06780195793566    8.45921048941279
C         9.54870346085917    4.53820981373643   10.82314497768083
H         8.50317298568002    4.58965859666621   10.51439144648675
H        10.07204550940617    3.81712817744083   10.19908481201872
H        10.02033790525080    5.50899675290301   10.67667107770110
C         7.11092980415408    3.22994827005907   16.26672037528510
H         7.97669801787890    3.10453406037701   16.89332103229095
C         5.84458298837624    3.11878731589671   16.81969209385689
H         5.72755863206397    2.90165436031877   17.86992045083838
C         4.73835559577998    3.28989634158033   16.00971537399159
H         3.73940944366681    3.20765825267323   16.40619419978745

