75
CSD_code = UHIQAD | q = 0 | S = 0 | Stoichiometry = C24H44N2OSi3Zr | MND = 12
Zr        5.34234468047582    3.19555473397342   10.83589373542832
N         3.53565033692260    2.24203527609895   10.71427864857040
C         2.75453155782745    1.60750218673850   11.75726269403784
H         1.89573162133515    2.23573487058886   12.06769665353213
H         3.36615823582466    1.39818938518301   12.63459212412587
H         2.32455295892307    0.65037853309881   11.40564594233976
C         2.67830994688179    2.38561991496740    9.54845279830289
H         2.42007511877259    1.40064831613352    9.11655754007881
H         3.16617630889305    2.98755781649096    8.77772332275187
H         1.71668509826035    2.86784900785155    9.80870175014175
N         4.76447052736769    5.12484490021752   10.47562143826388
C         3.43428943197035    5.53203852452996   10.06817131318953
H         3.20032504538580    6.54096779743931   10.45619916266434
H         2.67961056372461    4.84400294868546   10.45357213386036
H         3.33483397258777    5.58714583804125    8.96550536021581
C         5.69125425819192    6.16466847133626   10.07290775922927
H         5.68053421197064    6.32355272309630    8.97849189672746
H         6.71150652519119    5.91994410228652   10.37896941097327
H         5.41787489455970    7.13558655958516   10.52981519320182
Si        6.83146125019436    0.18050571397941   12.44447357249607
C         8.39734652229908   -0.44968979522431   13.33146611324979
H         8.74236096211612   -1.38104617232121   12.89492271677265
H         8.19380875527786   -0.63022777343289   14.38152685093193
H         9.20989813480299    0.26532902027604   13.27402901641993
C         5.34397043329176   -0.88042227709862   12.99784051592624
H         4.46890801187321   -0.69922487252781   12.38270419287556
H         5.07756596373488   -0.68868057054768   14.03194157885597
H         5.58691775321134   -1.93526876376370   12.91708650728376
O         7.07795994998509   -0.07047157266738   10.84261356152274
Si        6.47704017184526    0.23238094856543    9.34337369376049
C         7.74345132860369   -0.58514320519098    8.16922018201970
H         8.70371004071708   -0.08250391064485    8.21512672194007
H         7.39976228552450   -0.53986166139996    7.14150085932265
H         7.90271864129379   -1.62818408224333    8.42266082304244
C         4.78905889384104   -0.64724835719592    9.19638050529646
H         4.86959672891502   -1.68831250959776    9.49260533817337
H         4.41568953833423   -0.62420424149248    8.17827590709148
H         4.05231226209230   -0.17187275547123    9.83674819347950
Si        8.59561079820172    3.01609634366405   10.73446451515127
C         9.64889117015696    4.62134806756796   10.74755218128048
H        10.24305091588126    4.68694796215768   11.65262372829748
H         9.04563776733248    5.52053930292561   10.68362331309981
H        10.33378758943631    4.62860529507177    9.90709084502573
C         9.86076248322667    1.58627963672266   10.69620037598376
H         9.37331605241285    0.62068158661177   10.69914525508164
H        10.52891727048053    1.63320287966195   11.54979429062097
H        10.47104014376319    1.65305866590772    9.80107033913012
C         6.53368226216733    2.01072170192557   12.64550593358852
C         7.37529119050538    3.07646433899808   12.17904949879815
C         6.81102801554908    4.28786536040598   12.65372483111380
H         7.27325067632006    5.26014634669306   12.55120855065442
C         5.66794720144097    4.00183438834878   13.42544139576207
C         5.50687260822425    2.60248706629903   13.42021001732824
H         4.82487923027401    2.05235152038988   14.05554672962805
C         4.76562950717313    4.96071630846641   14.17061158831512
C         3.31218990346526    4.64631611540961   13.78028152510152
H         2.99627573440496    3.69283423543726   14.19886292067152
H         3.23496060294060    4.59787293753284   12.68961259790138
H         2.64071438238273    5.41762345365838   14.15484338912964
C         4.95186618162663    4.78237069000256   15.68444171159352
H         4.74002419775353    3.75803694805269   15.98088709397978
H         4.28473720589849    5.44595219388665   16.23128993297772
H         5.97686672262309    5.01161401952070   15.96653779989787
C         5.07277101372097    6.41023423796057   13.78948520020945
H         4.39235682765550    7.08661663969993   14.30408587074676
H         4.95187519160744    6.53881875035157   12.71671768319836
H         6.08898759812089    6.67773877780994   14.06896397504353
C         6.32903780028963    2.07266126734777    9.04550254634953
C         7.37181307737308    3.06367018377650    9.29900913176685
C         7.17083247724306    4.11314155045317    8.39894264115908
H         7.80483599827429    4.98065935938220    8.30301216377985
C         6.06186399692912    3.83026510284550    7.59126089765773
H         5.69321018794554    4.45035238316888    6.78920286031025
C         5.55515526116597    2.59472854675921    7.96598805959928
H         4.78347783301455    2.04687076678433    7.44375288197112

