67
CSD_code = UHIWUD | q = 0 | S = 0 | Stoichiometry = C25H38ClNPRh | MND = 6
Rh       -0.46704853571877    2.62313812093005    6.50347375595145
Cl       -1.86417361968758    0.86729725684052    6.93657754508915
P        -0.79148010169467    2.19452168928853    4.25199663837747
N        -2.34651930799301    0.07130620049256    1.88998292527523
C        -0.90469379464749    0.34605120362326    3.95517100579016
H        -1.63637478646188    0.01771327613405    4.70225598548383
C        -1.17781158620849   -0.20764080190356    2.58352034175060
C        -0.12516542148448   -0.95106481649809    2.16175608710890
H        -0.03934498875490   -1.47497534021940    1.22699689980605
C         0.88849854475066   -0.98742364333797    3.18308517211037
C         2.11951635465489   -1.62664845926144    3.22933217475113
H         2.46842827764925   -2.21380951564909    2.39190938473605
C         2.88992119364412   -1.49577388721500    4.37256222990474
H         3.85085338501720   -1.98756921326455    4.42664739918103
C         2.44884848604779   -0.74136248815909    5.45059524982958
H         3.07117539455278   -0.65490620663177    6.32938444211707
C         1.21800241571961   -0.09970973198384    5.41133820809374
H         0.87252881820808    0.49153088028832    6.25997075364383
C         0.44263195482247   -0.23043588991358    4.27975341849599
C         0.07142362845087    4.65555901006710    6.20403972907767
H        -0.12484183207286    4.97346309077022    5.18073150550344
C         1.23710809470663    3.92163272649456    6.42042058807174
H         1.83604863561390    3.69427061418596    5.54320525921613
C         2.03548570671356    3.97086196527644    7.70659245372698
H         3.09396552956271    3.84213843074134    7.47042824331058
H         1.92634487458656    4.95840297173161    8.15818064114401
C         1.61362601413509    2.87186323307056    8.69796385629311
H         1.81316392592345    3.19142192477143    9.72694568844364
H         2.21630428548741    1.97857982598475    8.51505165313895
C         0.15870705067298    2.48957058620375    8.57298762033844
H        -0.05819609618470    1.47367915508863    8.90341663545661
C        -0.89368661952605    3.38178556550038    8.50638190252622
H        -1.88822077118086    3.00836004675603    8.74875149221537
C        -0.73333064908875    4.88076103063262    8.61076585087480
H         0.13700318439384    5.10591184364954    9.22857180641341
H        -1.60621532792945    5.29665832470550    9.11832765052070
C        -0.60031383395515    5.54197560128735    7.22773947695017
H        -1.59917280287204    5.79056975168853    6.85734930661750
H        -0.04515644019189    6.48369286947516    7.31001836819117
C         0.39047947908081    2.81831633066360    2.93190295480669
H         0.41602261161338    3.90070640763904    3.11962656204364
C         1.81091190990321    2.28413506908129    3.11710313690005
H         2.52512373499385    2.95002447923977    2.63352501226235
H         1.91180463154275    1.29916147725130    2.67098467226412
H         2.07437345812795    2.19418989980313    4.16813829990968
C        -0.04694334948771    2.58123126015115    1.48866560958968
H         0.61111782748090    3.13593070763545    0.81979426235885
H        -1.06798783780331    2.89728558623980    1.29995342005234
H         0.03383210158239    1.52700250839661    1.24365858327328
C        -2.43213014697561    2.87549131761206    3.65658855393319
H        -2.71803226323627    2.30767771957865    2.76575682267379
C        -2.37281645620508    4.36515417311671    3.31908251152612
H        -3.35583293579789    4.69394199224918    2.98245594562866
H        -1.65862008817162    4.59645710114266    2.53429285584378
H        -2.11734311302341    4.94292918424401    4.20494552100358
C        -3.47501917051576    2.68623043805015    4.75479508937007
H        -4.44826326721520    3.04511897464070    4.42211895466646
H        -3.17803245932897    3.25169080882258    5.64252305185619
H        -3.57294201001273    1.64689402479949    5.05460997607222
C        -3.60080433243365   -0.20062260050930    2.56732682931686
H        -3.52937171335361    0.05727453667865    3.61810491524269
H        -3.87595960537937   -1.26089148728483    2.48805851874506
H        -4.39281036837371    0.39495909533299    2.11026818483535
C        -2.38095555316824   -0.35175240723112    0.50718049706880
H        -1.48818276517564    0.00156632515669   -0.00542345375211
H        -3.25487424480307    0.09389827101903    0.03132139068700
H        -2.44548331355417   -1.44249839515504    0.39836197630047

