61
CSD_code = UHIXAK | q = 1 | S = 0 | Stoichiometry = C24H34NPRh(1+) | MND = 6
Rh        6.35121283565125    4.04570699248992    2.93569009995391
P         4.72648330573984    4.70187399536367    4.38482990246696
N         5.11390594175663    2.24506816324673    2.70797201253213
C         2.72232566434144    1.37559109496699    3.23638106186513
H         2.28299951517751    1.36881355521734    2.23587276045726
H         3.03587655215535    0.35436406597086    3.46321193905836
C         3.83861950226192    2.37256246404230    3.36180409812287
C         3.53900484829487    3.34044244443758    4.25792186827949
C         2.23670932621455    3.05186612098447    4.85336752118720
C         1.50293260521445    3.68034421165524    5.84831878943720
H         1.86874579828767    4.56234691168913    6.34835947251706
C         0.27400479047054    3.14985576647657    6.20414199120200
H        -0.30564810196323    3.63030839471443    6.97707920356417
C        -0.22234490277286    2.01281328300697    5.58455322946278
H        -1.18349273964559    1.62079421205946    5.87779969043265
C         0.51047319447930    1.36931868834000    4.59784473771126
H         0.12980754713165    0.47822144858762    4.12236531493288
C         1.73872519468172    1.88672845013908    4.24622405118781
C         9.09194917928950    4.31590313868308    2.63218649211362
H         9.93877564473582    3.83894369289366    3.11580063471393
C         8.11203511984038    5.05865778249424    3.53625467391135
H         8.27662064934584    5.17714136655350    4.59951418798587
C         7.36609554847346    5.88895223241523    2.70502628700677
H         6.85435324566737    6.79692408090024    2.99355119695670
C         7.89064546899453    5.65085537491996    1.28944303721301
H         7.63728826251614    6.39588605847895    0.54173081368481
C         7.41014658435183    4.22407267057751    1.02686706888176
H         6.84060644235983    3.94511195327389    0.15020405480053
C         8.14567250684734    3.40484830386640    1.84986296487680
H         8.31788413671718    2.34383447745552    1.73546791258088
C         9.37971640015212    5.39613619241004    1.57612201201924
H         9.92353991344746    5.01596942775676    0.71234571846885
H         9.89227844649126    6.26666440584248    1.98232465803812
C         4.91942976789424    5.02682888143271    6.19870446290355
H         3.92650437373936    5.10971385580198    6.64950564645521
C         5.69749040388329    6.31629010123573    6.43650631535664
H         5.88071058449727    6.44799836057102    7.50088436952410
H         5.14512938398482    7.18317286984744    6.08078586572069
H         6.65882625699271    6.28619267931871    5.92734615035012
C         5.63810556733150    3.81450320164946    6.78649233597272
H         5.83770160054926    3.96356662987156    7.84509445571627
H         6.59031706133670    3.65527569545729    6.27632606006612
H         5.02834617317214    2.91789797482222    6.67820020041694
C         3.83053630316695    6.15453375152592    3.63812276270271
H         4.53272538611335    6.99349643497411    3.72156052199230
C         3.62500799840470    5.83313208215309    2.15768778453769
H         3.28565225640987    6.71459829666201    1.61864086759634
H         2.87378468118726    5.05304814345481    2.04244995417413
H         4.56442448315470    5.48775542182601    1.70369751781371
C         2.51906602257242    6.53973014166745    4.30838437646823
H         2.11299222376121    7.42416144549454    3.82064420668952
H         2.66109922961092    6.77677882731535    5.35994359058330
H         1.78683468565230    5.74134744382522    4.21910576820573
C         4.94144067057217    1.79669118611205    1.32004334766345
H         4.46060410869176    0.81489598413789    1.27566135098228
H         5.91206527527236    1.71682364073788    0.83202001465475
H         4.32834101696009    2.51727105321180    0.77841588094620
C         5.89841749085045    1.23965096992328    3.45547656901191
H         5.38471865223876    0.27272225857947    3.46798523893314
H         6.03718418970612    1.57375843858116    4.48577221042429
H         6.87239572558662    1.09624280789931    2.98830271651514

