65
CSD_code = UHIXEO | q = 0 | S = 0 | Stoichiometry = C25H37NPRh | MND = 6
Rh        0.33976222611452    0.35566269134623    4.16613131157026
P         2.01918184126268    0.77565448843973    2.66311014914800
N         1.27248613053406    2.06768661613413    5.30138079816670
C         3.43588677407284    3.38584878182471    5.22682521687353
H         3.35966184435284    3.94452856285759    6.14418231570132
C         2.54532097099673    2.46988418971076    4.71083316797919
C         3.01530989025712    1.97469978954433    3.47043332216590
C         4.27474430888362    2.59919257056654    3.22184809874813
C         5.22413589333748    2.52209572445243    2.20080381480025
H         5.08262201849210    1.87352072801325    1.34655642170382
C         6.36437733545776    3.28847492272008    2.27307452852279
H         7.09935878453655    3.22617927733731    1.48124687149478
C         6.59557274064901    4.14952794517616    3.35028925534987
H         7.50305462297004    4.73803258016611    3.37148385438906
C         5.68231481675855    4.24947594971687    4.37139350115016
H         5.85506900596778    4.91519181313759    5.20729161796309
C         4.51880030807246    3.48055400512952    4.32329489096495
C        -0.76565178960343   -0.62230315718898    5.84499820260477
H        -0.16216382603812   -0.47143100954992    6.73658504305435
C        -1.50049607201557    0.43828941021446    5.36353049344042
H        -1.50921698071675    1.35627067217309    5.94608127348690
C        -2.68412082794965    0.32499250489358    4.43239890237016
H        -2.90708920335248    1.32442432467038    4.04881986643445
H        -3.56131774211258   -0.00436340119519    5.00049645560344
C        -2.43905969165404   -0.62206090797182    3.24447882257747
H        -3.04931649283515   -0.28997577319281    2.40243104326002
H        -2.75696340361044   -1.63616006134520    3.48954120344027
C        -0.98629452025756   -0.64565765611555    2.82162426427918
H        -0.81031734843508   -0.25232030153140    1.82194726682884
C        -0.04724374993471   -1.55392886173918    3.30865411258477
H         0.75992003490790   -1.82739627757934    2.63561951278098
C        -0.30594612566609   -2.60596133261542    4.35779519061861
H         0.65969177155671   -2.98599315983523    4.70262662316574
H        -0.83849400559621   -3.44763314803087    3.90138776431132
C        -1.09024692053609   -2.06952203981648    5.56459212034348
H        -2.16331044388912   -2.17355063540411    5.40230704878598
H        -0.83715723396416   -2.66557596301919    6.44380622653142
C         3.26314954149047   -0.49963379986434    2.08220479090359
H         4.10259306343504    0.10718778568849    1.72819213600131
C         3.72244464622321   -1.25240771131073    3.32821979561184
H         4.11806509469365   -0.54499720106436    4.05577078779802
H         4.50344736350709   -1.97046207087675    3.08345813512680
H         2.88942082554518   -1.78566638484679    3.78811341694414
C         2.85583088824664   -1.44705736637295    0.95919229837843
H         2.43846905658038   -0.90747223978970    0.11242174366780
H         2.12688957684006   -2.18427540414025    1.28853941735272
H         3.73451836751524   -1.99036577921184    0.61161580291735
C         1.33456854132791    1.52013916996613    1.07560577883693
H         0.81619788378963    0.72453371432370    0.52607775254772
C         0.32031515930393    2.57561830281588    1.50789815360950
H        -0.37292866001080    2.15967254483005    2.24976154931423
H        -0.25332944024689    2.94389517900943    0.65846329116197
H         0.84801279439323    3.41523746973148    1.95851387699467
C         2.40311980155633    2.14167797162410    0.18826031391964
H         3.09781690640074    1.39345775065945   -0.18580740787566
H         2.96267254342675    2.88714575256003    0.74873806037058
H         1.93899299218120    2.63089999658070   -0.66817636007841
C         0.41945729924735    3.26735367742328    5.29825268106259
H        -0.51946237616457    3.09484057955619    5.82426937592434
H         0.20565583076237    3.55591787928474    4.27025553414367
H         0.93396694542956    4.09982524886916    5.78888885874951
C         1.53350982937920    1.67062617869815    6.69204234752898
H         0.60008091557820    1.49492712606044    7.22835433848934
H         2.08183362543831    2.45481316891049    7.22249165619313
H         2.14192604311927    0.76491459879097    6.69848130121224

