98
CSD_code = UHODAW | q = 0 | S = 0 | Stoichiometry = C50H39FN2O3P2Ru | MND = 6
C         6.14803756479711    4.95527385210209    5.96579324179597
C         6.62039856602448    3.99631294297377    6.86402766686489
C         6.80571075100139    2.68045291211911    6.49293172760552
C         6.51953383211619    2.25216041201046    5.19676904694074
C         6.07754399608685    3.16170693705135    4.27046846902976
C         5.90681219058256    4.50371819451967    4.64628064440732
C         5.54829357055072    5.51038384231390    3.71272144726309
C         5.20147643161357    7.73869822486940    3.18478576064397
C         4.29822935411109    8.77550881477685    3.44139105907217
C         4.12558565248967    9.78736017340168    2.52615663474078
C         4.86222286860942    9.78308154543817    1.34463128732972
C         5.77110727212624    8.76346451366882    1.07684778808240
C         5.93237197233190    7.74659967014319    1.98729074593577
C         6.09518926722816    6.85996760171363    8.00735627094534
C         3.16529407364710    4.57376986053560    7.11017251235576
C         2.29092349232479    3.69729399117181    6.48255348734492
C         2.15214384226779    2.40260622124412    6.95494722965777
C         2.87164664175769    1.97771497482447    8.05759765031059
C         3.72355172025064    2.85798700512098    8.70609208125645
C         3.86824668832172    4.14708545438967    8.23460469875074
C         2.61583063941257    7.13098228100419    8.00788421048314
C         1.37004175364742    6.66044690851014    8.42002888016790
C         0.71710032885523    7.26913901326776    9.47404401271718
C         1.29983931270983    8.34724233206172   10.12364038844953
C         2.53442852485862    8.81953009251584    9.71290573942090
C         3.19456352934592    8.21382150327195    8.65696739069718
C         2.34219151086477    6.61126898433498    5.23406712064032
C         2.43099161080504    5.81907917024382    4.08963292394719
C         1.67483004565520    6.12006518075416    2.97238506088493
C         0.82995650250749    7.21856023582929    2.97986793478568
C         0.74274567402969    8.01420783552189    4.10982617018316
C         1.49741594788565    7.71789325975477    5.23125858273470
C         8.91236217974877    6.08544692371716    5.50992034536355
C         9.54141453237885    5.52059545650676    6.61561922589874
C        10.19673635426902    4.30906660149839    6.49994448777657
C        10.21357376978188    3.63967479028950    5.28742375679354
C         9.56567289851426    4.18163851770003    4.18999524418188
C         8.91147195769067    5.39391183942683    4.30124569408319
C         8.74013216086333    8.56656928980983    6.95448534328688
C         7.99345188849906    9.35794070106616    7.81948716364772
C         8.63391672546514   10.19346729067384    8.71747341547650
C        10.01731480164739   10.24751099801159    8.74834957513192
C        10.76336953657386    9.47805229424146    7.86879264012868
C        10.13001489041156    8.64485278594224    6.96624511088581
C         8.17348108435089    8.62799171852195    4.28869024824278
C         7.34129711637437    9.74118882053570    4.18712374908887
C         7.52107279856435   10.65164220340491    3.16355432836257
C         8.52968354641401   10.45782098579383    2.23330077133571
C         9.37514548699820    9.36698523242913    2.34877948745927
C         9.21008967056757    8.45689424295188    3.37888399580536
N         5.39767542143186    6.73371401366539    4.12093822970288
N         4.70512385136547   10.84912741617918    0.40333732755427
O         6.40938050989238    6.77057069136615    9.11333203117063
O         3.86013022549888   11.69240927941347    0.63323196257109
O         5.42644743753598   10.85289299291929   -0.57654216796560
Ru        5.68852886686854    6.90877724972670    6.22316068722880
F         5.04226961164379    8.89212572088356    6.22662681711732
P         3.47457314395264    6.30749498380582    6.62738316579185
P         7.86033061283624    7.54945670298782    5.72769091719507
H         6.86425105371994    4.28608115480099    7.87768671671193
H         7.17646787516119    1.96661271142594    7.21520906702203
H         6.65728068805249    1.21550782483828    4.92698425662407
H         5.86530715217274    2.86137638049208    3.25272746368262
H         5.40333424197196    5.25655730090257    2.66063750690349
H         3.75698196793853    8.78776185217677    4.37343743236655
H         3.43480673662475   10.59487486979886    2.71335224351844
H         6.33984742337210    8.79099802950069    0.16019331573023
H         6.66114716983717    6.97174293123180    1.79739660532499
H         1.70473446621050    4.01845998777360    5.63375675621002
H         1.47292316782473    1.72457277531565    6.45854285363337
H         2.76174403416929    0.96541732848346    8.41729663644983
H         4.27422499307778    2.53668083062809    9.57767651048893
H         4.52312054655965    4.84723157055677    8.73675911611185
H         0.91899603825790    5.81875052886569    7.91139597712715
H        -0.24824187967269    6.90303345415577    9.79220169308501
H         0.78675820676741    8.81871459083004   10.94898847756206
H         2.98544065895792    9.66245608820695   10.21513661552628
H         4.15029631392315    8.58825494582221    8.31849702822665
H         3.09979289887787    4.96759589564463    4.07938200922606
H         1.74684705134140    5.49924974394975    2.09068542996179
H         0.24484617209150    7.45530135055032    2.10390063602031
H         0.08980932776550    8.87430760766256    4.11533725632404
H         1.44375327740674    8.35149922473411    6.10536712953350
H         9.50509736688679    6.03391561613619    7.56714624696679
H        10.68757111414894    3.87939150761659    7.36082168682880
H        10.72094460551778    2.69052090447877    5.19980078191228
H         9.56266523194489    3.65259780327363    3.24797172189037
H         8.38743367941528    5.80669592608351    3.44899711093161
H         6.91266120098971    9.31894770689616    7.77426495178063
H         8.05360731005832   10.80385038012688    9.39334201773084
H        10.51782847953736   10.89539483449270    9.45288975312863
H        11.84230463418332    9.53158522240227    7.88483600584736
H        10.70929919263491    8.04946518022540    6.27351697144200
H         6.55279620735531    9.88100647121669    4.91319724420718
H         6.87460372189627   11.51380055797990    3.09055472576350
H         8.66202122294310   11.15960828441089    1.42336943993168
H        10.17423056793662    9.22570082664400    1.63532187080282
H         9.88954966994639    7.62137611192077    3.47181931875433

