39
CSD_code = UHODAY | q = 1 | S = 0 | Stoichiometry = C12H20N3O3Pd(1+) | MND = 4
Pd       -0.17606710219076    2.93507326672988    1.94364189136865
C        -0.01152953863363    2.96445469531688   -0.85401508543493
H         0.45945315866884    2.95287692260138   -1.84389896318450
H        -0.65237043419383    3.84873333644786   -0.77956250344028
H        -0.62647502911121    2.06367729517104   -0.75093161577395
C         1.92366695828272    1.86821430896478    0.05434231868341
H         1.35654673220114    0.93588214811256    0.03246121832445
H         2.62293531396245    1.84192436774641    0.89327784446500
H         2.49382160204868    1.94729315974185   -0.87810630792944
C         1.74950651512169    4.28674400344648    0.14901099833090
H         2.72893287834774    4.14680684205851    0.61934871230648
H         1.91520645334602    4.58281568723604   -0.89386666536046
C         0.99612196170679    5.33614271019528    0.92624474617522
C         1.16804842176987    6.70858777067121    0.84280630977362
H         1.86530605489072    7.16204164408789    0.15452229073810
C         0.41784205056530    7.52540018736329    1.68356553231662
C        -0.50550398570956    7.02474322437778    2.59667100731132
H        -1.05740830363666    7.71405268810524    3.21776395004162
C        -0.68757531375546    5.65313364153879    2.66902082172396
C        -1.68023911717075    4.92453246340034    3.53926345266557
H        -2.66096034758978    4.97166936715107    3.05319431935018
H        -1.77286195929077    5.37907402070392    4.53310110090048
C        -2.45263590038789    2.66815948245855    3.95895842288236
H        -2.14190565155827    1.63945120304798    4.15125184707155
H        -3.14272194081658    2.68300984349943    3.11212342357957
H        -2.97852853387879    3.03549050429682    4.84762004918674
C        -0.28586148684257    3.35747464547446    4.73660712512930
H        -0.72975502620868    3.59639791675878    5.71021543850338
H         0.54971012893595    4.04010580570244    4.55463906741910
H         0.09237162394231    2.32984910662812    4.77085200942063
C         0.07268757877903    4.84233572628967    1.83771865704303
N         1.00609133984376    2.99706072312275    0.20753391819133
N        -1.28169228164579    3.49424798749069    3.66169731334167
N         0.60547918866600    8.96225232557453    1.60397843786647
O        -0.47776492375250    0.60066986248579    1.97570098513973
H         0.14368527864811    0.01029977572143    2.41329041222013
H        -1.34524030799891    0.18502993633347    1.99862793390433
O         1.38963199293776    9.37202700888273    0.78077328191640
O        -0.03574804829224    9.64586439506227    2.36695630383049

