51
CSD_code = UHOGAA | q = 1 | S = 0 | Stoichiometry = C21H27N2Pd(1+) | MND = 5
Pd        7.61342536820500    3.55332455793088   11.52375301359858
C         5.47700979402903    3.59325743730693   11.40359970424476
H         5.10199625913867    2.58489620376376   11.25782282878625
H         5.07878632949317    4.12429961234484   12.26573261937975
C         5.99298476117108    4.30737945100919   10.34959646048655
C         6.09522518926042    5.80834955468329   10.38231883635789
H         5.45159619524465    6.23444380391519    9.61225416025833
H         7.12154207205459    6.12464965532935   10.15553378572595
H         5.79425153440872    6.21482163484934   11.34731021682372
C         6.22611157047149    3.69768190203407    8.98681187564052
H         6.97998451382595    4.30174192069395    8.47006614718992
H         5.30318354760739    3.77798505063433    8.40433834726197
C         6.70148043609935    2.23272741092476    9.02946549303993
H         5.83283377794589    1.57176758521862    8.96578746813564
C         7.68761123654778    1.95866925604063    7.87720928886074
H         7.40755039235839    2.44694790137844    6.94587859606960
C         7.86647981499377    0.44427496704573    7.74594498493749
H         8.44138220565809    0.20636701712777    6.85201149177759
H         6.91150774874634   -0.07366720612304    7.67678373146042
C         8.64682295758224    0.07956433156106    9.02146761561133
H         8.09449362715218   -0.60140327748868    9.66733407262834
H         9.60210406759717   -0.38646874135411    8.78365439886121
C         8.88147145271146    1.44480290862141    9.69831707899489
H         9.71649102801301    1.41421217633141   10.39954669948657
C         7.54854433840315    1.90236333622029   10.28207868731503
H         7.09585079503012    1.12226987067227   10.91968163037392
C         9.02138113839205    2.37983570265394    8.49684636596137
H         9.87650495349655    2.15303851695484    7.86529688196370
H         9.05008235582430    3.43253641088946    8.79910047572473
N         7.66252378455452    5.13312837144114   13.21022511828271
C         8.22862205957242    6.33372492073763   13.27761919442661
H         8.54581529810345    6.77151619264285   12.33812708136263
C         8.40601294663813    7.01320549013835   14.47199796889325
H         8.86573084039766    7.98836158522531   14.47756783790773
C         7.97799995922742    6.41650234505251   15.64765026390388
H         8.09611416424225    6.91910142405861   16.59533006768823
C         7.39325305419957    5.16017519959019   15.58113969222970
H         7.04599145559990    4.66063501943922   16.47134994689098
C         7.25759334478765    4.55606985116173   14.34294051246404
H         6.79656596032910    3.57135709530049   14.24657135163572
N         9.53885844710567    3.23439114554108   12.12734511613711
C        10.51950201453026    4.04113186660854   11.72596093979992
H        10.30430349628973    4.68372267923833   10.87695921590322
C        11.76227750392181    4.05820124356987   12.33606364867534
H        12.53248138042230    4.72126266814863   11.97647727124906
C        11.99344114255016    3.20762731922120   13.40688695032064
H        12.95158220028187    3.19359781447431   13.90200665856129
C        10.96935649186072    2.36911832888478   13.82198785155710
H        11.10809774517209    1.68816462721884   14.64611917076329
C         9.75753769806735    2.41331771922060   13.15355952342489
H         8.93674955063641    1.75841814183116   13.43577166096289

