58
CSD_code = UHOGOO | q = 1 | S = 0 | Stoichiometry = C22H35Pd(1+) | MND = 5
C         5.71945214694459    3.69115678682120    8.73505694150359
C         4.80147917956186    2.81470994423243    9.24424570475715
C         5.30486336441698    1.51063881732272    9.83728167693599
H         6.14063368394244    1.09307027073989    9.26334310297497
H         4.51769386537926    0.76331410622815    9.90461059909145
H         5.66207453140423    1.69897496454534   10.85107509079704
C         3.35733548218673    3.13715323061384    9.54055980486154
H         3.10360497776814    4.13160543735733    9.17997509102010
H         3.20127766861627    3.11729909320898   10.62190422995532
C         2.43769813103054    2.10104255617903    8.86195937535314
H         2.25127611096759    1.28831767358204    9.56994213756091
C         3.03777812646954    1.52924368065297    7.57366516918511
H         3.39773093492254    0.49076102346465    7.65826001195732
C         1.96071229675578    1.75153103298881    6.53933161322910
H         2.25732075920847    1.61718682862001    5.50010204949945
C         0.77763591784701    0.82861842685796    6.92198804578646
H         0.08331104270571    0.76805588300574    6.08580053839239
H         1.11084078907840   -0.18165003208160    7.15463854060194
C         0.14437124675909    1.53563400767655    8.13247022645935
H        -0.85051387711993    1.90727817915853    7.89315795455958
H         0.05748416206975    0.88529350078496    9.00078095390739
C         1.10441398079353    2.70364344976179    8.37758920682658
H         0.70877645095281    3.47179924517211    9.03763921039682
C         1.43466298750807    3.13040190350005    6.94716106097659
H         2.20980985057853    3.89831423746371    6.88331257651386
H         0.55866820387173    3.44151948716640    6.38450802956729
C         4.84231506516391    2.45994145536317    4.91977244020854
C         5.08488587832962    1.16986092647871    5.34992091174325
C         6.56773618880288    0.92915066691345    5.18990571834167
H         6.98555087973124    0.09273535899876    5.75008901510924
C         7.13585352834432    2.32562655455230    5.47238231442399
C         6.17699048310896    3.02919982378524    4.50067872126598
H         6.24171186356521    4.11460476284655    4.42054685784243
C         6.50965296014141    2.28037460820364    3.18465767356004
H         5.68995855865394    2.34284671081127    2.47125310645663
H         7.39344757479590    2.71913218709143    2.72524149058542
C         6.77561210859104    0.83964828564935    3.65742459213743
H         7.79612421342854    0.53044790566118    3.43990411883045
H         6.09822290389478    0.11859576735951    3.20360541947377
C         5.63152244173564    5.18227963471300    8.42724287782225
C         6.97216157572718    5.61191334564844    7.81100691498427
H         6.98452853788821    6.68699781703965    7.65212925401852
H         7.13101493753546    5.12527433660280    6.84807796966276
H         7.80281825559096    5.36464942556636    8.46832571247079
C         5.42833700531992    5.94554232046069    9.74351160786757
H         5.40461389426181    7.01442264385087    9.54833067877137
H         6.24732573601679    5.74197501515494   10.42888464573621
H         4.49923785490221    5.66299844902805   10.23043660981088
C         4.52225526870380    5.54715813032571    7.42261049139538
H         3.54619638226990    5.60813779177809    7.89814955051684
H         4.48510055525206    4.82124732239425    6.58823331344526
H         4.73020856540656    6.52704410587376    6.99775136822855
Pd        4.85615819126427    2.45988294211392    7.07118728307369
H         8.18002424470125    2.42689062376575    5.18122448002473
H         3.91007716407741    2.84076904430457    4.51166508340180
H         4.37556315528009    0.34841390674954    5.32984628855824
H         7.02578740527714    2.64079039669293    6.52801440380547
H         6.75821460761988    3.34523399919426    8.79463014376505

