50
CSD_code = UHOGEE | q = 1 | S = 0 | Stoichiometry = C20H29Pd(1+) | MND = 9
C         2.99435782444691    1.72913350353141    6.11581508685303
H         1.93978781946678    1.67226081963308    5.84335961226745
H         3.41109112763637    0.83180769072520    6.56170059391937
C         3.57256664757905    2.96560157482147    6.35494423054695
C         2.77604942199315    4.23883316137077    6.24733587814928
H         1.80708983399848    4.06896070054582    5.77589976610195
H         3.33098658772375    5.00086802324185    5.68901023643542
H         2.60198218126014    4.63965776281037    7.24689916803808
C         4.88459930467219    3.09687881616686    7.09612684192664
H         4.68997933272150    3.01586276039099    8.16923478927050
H         5.27578734920049    4.10306347689296    6.92042391993488
C         5.94596577298713    2.06207048067976    6.66386522114995
H         6.00612518659683    1.27279363215173    7.41753374125160
C         7.31417104458614    2.74742644534994    6.46418796447979
H         7.52208451108057    3.51654614380021    7.20433821935125
C         8.39082251854157    1.66139077838778    6.39155614430373
H         8.33243765490872    0.97612409822398    7.23473119724378
H         9.38258242799562    2.11044382837179    6.39349157179801
C         8.09610043079066    0.97275932002863    5.04856383429041
H         7.83048350003289   -0.07657825161639    5.16465808837131
H         8.94853702265610    1.03171997292004    4.37361634030882
C         6.92347182699627    1.79939849159146    4.47671719430512
H         6.83185428418099    1.67395952539794    3.39707709061588
C         5.69012823653325    1.44417712567871    5.27671777444180
H         5.45338503246814    0.36966466425056    5.27676245234611
C         7.22228910317364    3.20514914855586    5.00715233987033
H         6.38909664587770    3.89921891172904    4.82069989414696
H         8.15053042671500    3.62665302014602    4.63053803009697
C         3.88133762856376    3.77398618320450    2.44751085917158
C         4.55706978403722    5.10282171977140    2.27555707491082
H         4.41730180593231    5.44065570169601    1.24768832782297
H         5.62772913320148    5.03397485822376    2.46002440181778
H         4.12724048401426    5.85717466773587    2.93186903419622
C         4.56784811168476    2.57550546541182    2.16191680666962
H         5.58258289248280    2.63404900233003    1.78008142223900
C         3.89856803361583    1.32981619892010    2.15405621784112
C         4.59926884139152    0.08627657120997    1.69667118274236
H         4.22191547428934   -0.79104857610868    2.21809217911226
H         5.67526065620313    0.15100092146826    1.84337324776373
H         4.41409499696686   -0.05502195891325    0.63101856288931
C         2.52929371412410    1.29870143907918    2.45504023496799
H         1.99033117699472    0.36275313748933    2.37996464834811
C         1.83448300459457    2.47010069740170    2.77782112512666
C         0.35594945759650    2.43214009048116    3.00956550141137
H        -0.15694789755204    2.48797627979226    2.04876479129151
H         0.02305562866419    3.27434291497273    3.61191831280188
H         0.05356801901603    1.50455583795439    3.49060222340654
C         2.52267730612226    3.69397052256127    2.78687607388621
H         1.96789694509883    4.60881618098251    2.96154513302200
Pd        4.05763174613382    2.34520651856015    4.39318541674666

