80
CSD_code = UHOLAG | q = 0 | S = 0 | Stoichiometry = C28H37BCdF2N6O2S3 | MND = 5
Cd        4.69742603487320    1.09378746516487    5.16559133809886
B         7.07146129565191   -1.20569679409834    3.25242940748898
H         7.80440119575757   -1.94051280277445    2.66478458560718
F        -1.25074029455169    3.07546298827225    8.70114781808326
F         2.07202436317652    6.31861863011786    9.37501774958207
O         4.24466301912284    2.89615796020414    6.43381455222929
O         2.66449442450499    1.41559879853114    6.06137650664767
S         3.99232892156634    0.16753199032255    2.80726949686798
S         5.46874666717788   -1.15055747822358    6.24765803958043
S         7.08717982962212    1.96378607654916    4.43617934575512
N         5.68823232400984   -1.88648214978920    3.33054442022750
N         3.56377637808500   -2.45525301013577    3.40928470624559
N         7.66329239739613   -0.97529578084217    4.65914875786395
N         8.06868647836401   -0.53430569248799    6.77673394772282
N         6.99023227879911    0.11364595912729    2.45901218674205
N         6.69675930274266    2.17672607113062    1.74949124586319
C         4.42754638751390   -1.42803057534295    3.21109780023466
C         5.61114724286381   -3.22056642102699    3.62299715463352
H         6.49232094545009   -3.80614634331263    3.77920898288193
C         4.31012375878141   -3.57403022025582    3.67512964165454
H         3.88230092445940   -4.52910314063423    3.88448957688392
C         2.09595426512242   -2.38643778488139    3.41196609288759
C         1.64434901180880   -1.41054044836884    4.50141433946970
H         2.12677109937926   -1.65108483367871    5.44797721823293
H         0.56802822859908   -1.47752028779897    4.63217964320662
H         1.89076466192512   -0.38335091523378    4.24630124252518
C         1.61455685503725   -1.94551600486026    2.02721090920956
H         1.93355873328398   -2.65954396671994    1.27017711997432
H         2.01421416468840   -0.96798484907987    1.77517420539565
H         0.52987901553333   -1.88908677365570    2.01975440489147
C         1.51354798078011   -3.76751465547342    3.71945452962615
H         1.80530028744035   -4.10522589929058    4.71102764652552
H         1.81728464603084   -4.50270508267516    2.97729931165159
H         0.42922883667249   -3.69780002559772    3.69463398047708
C         7.10539647541860   -0.85780643692046    5.87809199681464
C         8.99912668050525   -0.71447600551096    4.79562618133931
H         9.65725734262285   -0.73448836964527    3.95286515837404
C         9.25317887450807   -0.44042103786130    6.09231321375328
H        10.18033685781678   -0.18681058815885    6.55617566312082
C         7.87385443644535   -0.24131859732977    8.20324544777706
C         6.88444698431345    0.92088621662226    8.34494746107902
H         5.87052097783356    0.61230618105713    8.09425604000536
H         7.16952045396096    1.74336532186894    7.68840702847451
H         6.88314542922819    1.27891543924082    9.37085613147024
C         9.20573159475023    0.17157806231335    8.83252729594701
H         9.94618935214050   -0.62110152021787    8.75167694367108
H         9.04316030337511    0.36835609649724    9.88892746036657
H         9.58977447506798    1.08039250284920    8.37560208873775
C         7.36204175581725   -1.50157634218359    8.90604612401406
H         6.42095344871482   -1.82728609202394    8.47272356433458
H         7.20562127364485   -1.29321824460860    9.96060607912665
H         8.08710061282147   -2.30764536364857    8.81189078779042
C         6.89611205267762    1.40022705893909    2.84470994849975
C         6.84446962488940    0.08378668162944    1.09872091339349
H         6.87297183662848   -0.83829392128134    0.55750612278895
C         6.66157949713040    1.34604423741948    0.65844648164260
H         6.51053972570099    1.69399260181918   -0.33922584122783
C         6.44889847094221    3.62451544932210    1.73776216083001
C         5.21577190806982    3.92664698199200    2.59765830713255
H         4.39002059500656    3.27314946525745    2.31170252955638
H         4.90995085254797    4.95870360225105    2.44941621428858
H         5.42570189150045    3.78631684985843    3.65710644937756
C         7.68943979769196    4.34990407981780    2.26495911789357
H         7.91426298581061    4.03471617239046    3.27945680355219
H         7.51350701944095    5.42176257696246    2.26464817308062
H         8.54938279076066    4.13544210969665    1.63351975241028
C         6.17157535254932    4.08938077620210    0.30673533511969
H         5.28130665893054    3.61143419644715   -0.09511554573733
H         7.01917991021324    3.89294771627555   -0.34604137449745
H         6.00148577795640    5.16273985822821    0.31783290929578
C         3.08043683052443    2.46889891389904    6.58912559111539
C         2.13618296155118    3.25824719890967    7.45375328453762
C         0.84931324881854    2.78433834517947    7.67585079868946
H         0.53244842128371    1.85614782792119    7.22789448531418
C        -0.00023499445487    3.52348752427919    8.47555844741800
C         0.38670830230715    4.71723083334718    9.05980055850016
H        -0.28969260474729    5.28125575598458    9.68101886610481
C         1.67582850399127    5.15864128989844    8.81583318266848
C         2.55999273996817    4.45204415844861    8.02417805984427
H         3.56166085167923    4.80871643340423    7.84502569723266

