67
CSD_code = UHONUA | q = 1 | S = 0 | Stoichiometry = C35H28N2OsP(1+) | MND = 8
Os       -2.00430967486316    2.17237696088639   16.93703401636111
P        -4.21766943665569    1.74025247724248   17.48196562901416
N        -2.60256439713781    3.72971860673219   15.81114350621308
N        -2.31797733518248    1.24868491544874   15.17221529012940
C        -2.67644378970631    5.01440727857461   16.15331622651664
H        -2.36849330143103    5.27411231029819   17.15654960177577
C        -3.13281067280944    6.00402699122618   15.28899012394282
H        -3.17104064766681    7.02361082917596   15.63725617846568
C        -3.53387926991332    5.68301819298074   14.00833746357760
H        -3.90111536657822    6.43718747281211   13.33118152755928
C        -3.43747307063936    4.34614582066935   13.59493887346880
C        -3.76945812622406    3.86841198356552   12.29384612916750
H        -4.14747481215912    4.57970038041881   11.57575830756539
C        -3.59988564193534    2.56613036879022   11.95069918864186
H        -3.84034546945090    2.22578607546232   10.95514389669937
C        -3.09063454313868    1.61099901727013   12.87801789757902
C        -2.85903059501737    0.25699491260203   12.59245706685852
H        -3.06916250911358   -0.13618865925388   11.61070933232320
C        -2.35436263284316   -0.54826757371249   13.59330192054004
H        -2.15483712796059   -1.59178627542785   13.41043429910847
C        -2.10109432298715   -0.02678284596905   14.85837073382315
H        -1.72747529073211   -0.66923978551866   15.64225894590239
C        -2.79330428046058    2.05342348320968   14.18098332819043
C        -2.95880213454323    3.41484141500191   14.53496815187579
C        -5.37274638793998    2.46499778490332   16.26642760830792
C        -5.88873913403248    3.74720864367998   16.42204087701059
H        -5.72270733759730    4.28710047267494   17.34278581351111
C        -6.63265394958738    4.32368532055792   15.40748377587053
H        -7.03658814874414    5.31608267787806   15.53809358457122
C        -6.86213315485202    3.63117175789389   14.23038366883650
H        -7.44202833722090    4.08387453959357   13.44113749331875
C        -6.35637078058880    2.35085951517688   14.07147340811844
H        -6.54404591299252    1.80344792311360   13.16023338470066
C        -5.60841320321748    1.77206349724067   15.07926895222770
H        -5.22047354290113    0.76888841293203   14.95985972857785
C        -4.74786531963598   -0.00084504546972   17.54219920438420
C        -6.08323835812612   -0.36064585166937   17.36949685326692
H        -6.82469718091283    0.40023830736344   17.16893621288937
C        -6.45549398924441   -1.68950976452482   17.45897312664453
H        -7.49057739415853   -1.96509979456878   17.32572455106933
C        -5.50650144698088   -2.66500570189497   17.72379950569861
H        -5.80296588853624   -3.70025251938229   17.79189894378447
C        -4.17987782828051   -2.31064051930765   17.90668156406356
H        -3.44256766540185   -3.06928058465325   18.12193592045588
C        -3.80253011300540   -0.98265274303545   17.81746530769613
H        -2.77227119353675   -0.69101719023568   17.96990694516455
C        -4.77660177165577    2.40733195453747   19.08408545511672
C        -5.57386152072922    1.68514746125863   19.96516931165363
H        -5.89073105150662    0.68290484067311   19.71796752723023
C        -5.95906039963102    2.25136073128598   21.16851565145635
H        -6.57713655639732    1.68600347045164   21.84922812572198
C        -5.55371559204720    3.53273905212401   21.50236712198592
H        -5.85580046884528    3.96727995184773   22.44260557630319
C        -4.75206620293066    4.25390639238279   20.63104723089666
H        -4.42948653950043    5.25074234581539   20.89222837376137
C        -4.36045423640518    3.69136243087836   19.43131876027563
H        -3.72178510618189    4.23845478729215   18.75077992466113
C        -0.40890607171144    0.86769186749053   17.98018049500013
H        -0.23166728401647   -0.19547119062084   17.91805716394028
C        -1.14650232814077    1.52864255676732   18.99048989370162
H        -1.65753241768660    1.05701603623619   19.81893348508106
C        -0.95306345976854    2.93439810374691   18.83701482392581
H        -1.24755448860387    3.68341729019590   19.55599371967547
C        -0.06980852508990    3.12646961680765   17.74705658613476
H         0.36537135785278    4.06710531199910   17.44343745095571
C         0.25122591183527    1.86000864959768   17.20309900028562
H         0.99286746671481    1.67175484900069   16.44144025698768

