110
CSD_code = UHOPAK | q = 0 | S = 0 | Stoichiometry = C49H55N3NbPSi | MND = 6
Nb        9.21937993109261    3.27354941746147    4.76714489272496
P         8.53111286945345    0.86363919512439    5.29165096391137
Si       12.00127399156645    5.39727559788044    5.44827163587890
N         7.75010880185918    3.95016428297227    3.63362522118988
N        10.45170884747899    2.07811573033860    3.68386719780636
N         8.94767657382101    3.38669547458690    6.79651208126378
C         7.17549844993042    0.63396393213357    4.10165297915840
C         6.80500717276991   -0.54014082353737    3.45986511773356
H         7.33395391655844   -1.46309496736037    3.65340150006820
C         5.76468538886139   -0.51460311717137    2.54566102438822
H         5.47328866573456   -1.42295524946001    2.03867340971389
C         5.10517130023138    0.67316560484269    2.27434476167547
H         4.29891989543506    0.68683682424987    1.55527714793678
C         5.48278720757511    1.84793372514562    2.90521471572107
H         4.97966136895896    2.77519632722038    2.67066016015059
C         6.53004180058704    1.84719892595428    3.81817632159834
C         7.03446860107890    3.09706780831747    4.47678380874066
H         6.25758208557369    3.58025625900020    5.09877233942713
C         7.26882676584973    5.03035451918963    2.94423785723916
C         5.97300544084073    5.53807510986959    3.11100517008644
H         5.30271388996650    5.07339462282350    3.82101035906144
C         5.54249885245198    6.64001970114673    2.39164728702524
C         6.39896923242794    7.23549240654431    1.47473724187423
H         6.05950652865879    8.08938872745582    0.90570843082878
C         7.68302099667249    6.73979015390319    1.27339587987522
C         8.10928582900015    5.64885936737294    2.00642051332040
H         9.09806364936410    5.23765648313021    1.85413490392862
C         4.15577528869472    7.18120371645021    2.58598765592028
H         3.52456746286806    6.91434267830272    1.73777287371892
H         4.17529166251185    8.26716585644520    2.65728544533788
H         3.70381333965459    6.77870070886244    3.48938742976843
C         8.59870624426113    7.38891595872876    0.27782816750914
H         8.05107935030975    7.69084000784951   -0.61293296823435
H         9.39733430123851    6.70910391599547   -0.00896705836747
H         9.05003155152851    8.28131091214214    0.71217032653770
C         9.63611003166114   -0.55324492802492    4.98787534982993
C         9.27423319637270   -1.86617909429218    5.27449625256286
H         8.33326130407712   -2.06520003748048    5.76790435415569
C        10.12348664718502   -2.90968845478030    4.95459585984629
H         9.83676961216867   -3.92737656860155    5.17538905998190
C        11.33941950913686   -2.64365926363228    4.34800701962885
H        11.99923149569167   -3.45533709423594    4.07978227576487
C        11.72263841422082   -1.33562556177570    4.10421071918748
H        12.68849845849899   -1.13698512369997    3.66100637340351
C        10.88858787052285   -0.27458707484286    4.42951933073823
C        11.39361233749997    1.15325735519149    4.27833888886569
H        11.65751092524867    1.50579559513750    5.29265264481138
H        12.32469573414358    1.11374599005488    3.69946128532517
C        10.58316449707025    2.33825598904769    2.32583589342524
C         9.42686450874064    2.38740423831863    1.53836783998450
H         8.47239676330654    2.13491723048781    1.98847580665421
C         9.47623713863011    2.74645211908470    0.20149352345976
C        10.70561662327276    3.02668329910654   -0.37874854910571
H        10.75601083366882    3.30859299179682   -1.42089702791612
C        11.87582827274485    2.95085900970598    0.36657435853802
C        11.80996379882912    2.60878776798344    1.70700989706120
H        12.72221088105490    2.59838535545485    2.28836613841309
C         8.20246907741792    2.85070293845896   -0.58244407533761
H         8.40173512500188    2.92121966938888   -1.64898383589642
H         7.65482829435171    3.74086978517664   -0.27112595716668
H         7.56610827258804    1.98744418211586   -0.39585957109951
C        13.20231849840059    3.23373475655015   -0.27576567669964
H        13.60642873779847    2.32057570658941   -0.71471540881764
H        13.91858313946821    3.60277298563098    0.45474644374057
H        13.09844105358139    3.96946383418313   -1.06998107543498
C         7.81004097469024    0.52412774084135    6.92168762650728
C         6.78870207499259   -0.38996132688574    7.15312684790136
H         6.31473975317489   -0.88468644015117    6.31581047335469
C         6.37666302361472   -0.65021844879733    8.44721339405843
H         5.58263235546565   -1.35875654478555    8.63155269027660
C         6.99900216887941   -0.01095663068334    9.50675999834767
H         6.70411484317038   -0.23578177787573   10.52115473742946
C         7.98500764029831    0.93319989097436    9.27250453977770
H         8.45080331330313    1.43258971447944   10.11205146340166
C         8.38065106640239    1.24259558378604    7.97792413723409
C         9.40087132034896    2.34149035788405    7.70205641683083
H         9.71151221320645    2.77819746216662    8.66287054943509
H        10.29148119635287    1.87382567192572    7.25039737991287
C         8.04469174077128    4.29730052232692    7.30286258108254
C         7.76891142469262    5.45846192425922    6.55674751013523
H         8.32700269434792    5.65237591230606    5.64672147427869
C         6.82989422259728    6.38746973125384    6.96422857760257
C         6.15243916282620    6.19463318475569    8.16324595071093
H         5.41920966700976    6.91765271145456    8.49062016855612
C         6.42541187051218    5.08311865936242    8.94432579392942
C         7.35916941749113    4.15118125839285    8.51687605481733
H         7.52771594737935    3.29281308410754    9.14395669394359
C         6.57788597656294    7.60665899456813    6.12663700892348
H         6.66786336150592    7.37231137958385    5.06768670559219
H         7.30982687341330    8.37897830022374    6.36488387606848
H         5.58644919252689    8.01079847726098    6.31801215584910
C         5.72885132969495    4.87923613808417   10.25844386456846
H         6.38100177497777    5.18237538933290   11.07834417379959
H         5.47404273023037    3.83081487307618   10.40271016711037
H         4.81973892973030    5.47315915078890   10.31220879164923
C        10.52745982831471    5.08449191667579    4.30786917230099
H        10.94396117658460    4.93419044684984    3.30256279960598
H         9.97235111440044    6.02714522223682    4.23636017544500
C        11.60809331512122    5.12438181558605    7.30730540212325
H        10.61960512347756    5.49991347665010    7.55988901074552
H        12.32550872721118    5.64019337689139    7.93921529404231
H        11.64270295122658    4.06975283487619    7.57056439769434
C        13.48078305211179    4.24933411425414    5.01940807141390
H        13.23038588942370    3.19971440706413    5.14587743427261
H        14.33643486235040    4.46025833233305    5.65412710357144
H        13.79579038804683    4.39297096196745    3.99048121026243
C        12.65702176447169    7.19295082505725    5.29402746964720
H        12.91140771985202    7.43342234699675    4.26673629402930
H        13.54684275523829    7.34572565059039    5.89682051593620
H        11.91154476478619    7.91043193597596    5.62216091341895

