71
CSD_code = UHOXAQ | q = 0 | S = 0 | Stoichiometry = C24H38BCoN6O | MND = 4
Co        3.77407521179296    4.50155556695826    4.73478863107337
O         4.67300368594094    5.90450167459800    4.19751892173319
H         4.98081815584404    6.57536530829266    4.80985196254356
N         2.42871463480666    2.63714179081549    6.30058162278699
N         2.77147999635777    2.90974749083724    5.02206323403787
N         2.35285200438277    4.95627805790501    7.05449833633091
N         2.44283964090385    5.42037747265943    5.78040856717364
N         4.44722188569096    3.62690855906521    7.25993505603775
N         5.00513339086910    3.82954274311397    6.03852734266440
C         1.14079096460900    0.94271112887568    7.61255984089809
H         1.95043926217456    0.69108472391838    8.29576041352680
H         0.57388620809349    0.04358999452168    7.38794646652766
H         0.48858937440248    1.65952255249731    8.10894849832859
C         1.67971482931701    1.51369818946454    6.35328386664112
C         1.55661441299701    1.06977941567449    5.05832260529801
C         2.24484251840721    1.95730202515219    4.23964101239468
C         2.46054676121884    1.83304262685085    2.76030872999553
C         1.21437738057532    1.20053336865328    2.13211544324629
H         1.01874989845419    0.23243978349570    2.58622743012446
H         1.35713443760900    1.06483450236327    1.06246917140367
H         0.34384091755334    1.83283929760108    2.29067264994497
C         3.66568683812063    0.90740436722995    2.54055299370213
H         4.55982663914148    1.34324287951014    2.97828871449490
H         3.83644556218423    0.75317513140610    1.47716853676561
H         3.48780327207034   -0.05839452681873    3.00766785548660
C         2.72650704504481    3.19426899397719    2.11753936780611
H         1.81719953814683    3.78975095206963    2.10148810239068
H         3.07597099625181    3.07019416031537    1.09474654269296
H         3.50192378583467    3.74490885913807    2.67565162768129
C         1.31330275275140    5.62267564724588    9.22782550421086
H         0.72874457809791    4.71805206838360    9.38844953461320
H         0.74874939883564    6.47708466713991    9.59084852473960
H         2.23584109225266    5.53496028592332    9.79888151260898
C         1.60797353564280    5.80649469356841    7.78493480164979
C         1.21036726768682    6.81710770492725    6.93388889752704
C         1.72197750957737    6.55038477493353    5.67750784198967
C         1.45967562798217    7.35316779587023    4.43661898443455
C         0.09210633436829    8.02606876799805    4.60173477838254
H        -0.69053463151456    7.27861294104338    4.70950299032350
H        -0.13199918670633    8.64318068070509    3.73461410966639
H         0.08965938609374    8.65263288212240    5.49030141123381
C         1.44485412893622    6.44995044176928    3.20448108765401
H         2.42335515397320    5.98714570929864    3.07658261075338
H         1.22043983525795    7.03183181694943    2.31302660806049
H         0.69098702374347    5.67242000535211    3.31440905178547
C         2.53798990985371    8.43219828561123    4.27521798942239
H         2.63010343415359    9.01719137248602    5.18749527509246
H         2.27632880204654    9.10084149658460    3.45783234847018
H         3.49548749483365    7.97177859626508    4.05011913960829
C         5.17943796912897    3.13262004028986    9.59852355029855
H         6.13226826502261    3.02070986278034   10.10850370095716
H         4.59432054428478    2.22486754139854    9.73776857847973
H         4.63072919205878    3.96032463650565   10.04435941117345
C         5.42188913708766    3.38335861356585    8.15593142985396
C         6.61615290718109    3.42040627817541    7.46505954765387
C         6.33753189106823    3.67877367593023    6.13592473345261
C         7.33616945077001    3.72873745019134    5.01608594399947
C         7.78149243056204    5.17633309743534    4.77384709877120
H         6.95867999827512    5.75405312407676    4.36343003566507
H         8.60703106223924    5.19836282363930    4.06553788904360
H         8.10944672477005    5.63387190365700    5.70451560708384
C         6.73132798506384    3.15235302458941    3.73595477768626
H         6.46332288056433    2.10803218118886    3.88442826013294
H         7.44520999670833    3.21662310214147    2.91775402108232
H         5.83802791804072    3.71669927414000    3.45876626706681
C         8.54906156676029    2.89024028762975    5.43474420026362
H         8.97772689144740    3.28730456445998    6.35146863338898
H         9.30688303879955    2.90790671088012    4.65475404855743
H         8.25722742205909    1.85809357943015    5.61428534574153
B         2.92339124642410    3.57922585405276    7.40476935890815
H         2.59373278502299    3.22477464951996    8.47728101477867

