67
CSD_code = UHUMUF | q = 0 | S = 0 | Stoichiometry = C27H33O5PW | MND = 6
W         4.62043701082430    2.90441516013576   14.24469017712196
P         6.69651551322848    1.86468692528954   13.25833648909734
O         3.76692801308196    4.24280842576608   11.53461797051023
O         6.00528088817110    5.57043954331062   15.17124649766776
O         5.08539311263871    1.63814671844338   17.08084074451833
O         3.17900381884620    0.26184506598610   13.34133408604266
O         1.95386761407846    4.02360750920931   15.41638971435796
C         6.53463895236792    0.36862808916623   12.59679000608562
C         6.28640758751869   -0.78543792360655   12.11006047067905
C         6.20624657071212   -2.25037565923316   12.28706696694116
C         5.89392871745506   -1.62112605391255   10.95599143254129
C         8.49066505450066    2.14216116837315   12.96967073292301
C         8.91933687777587    2.64648081943409   11.72895953165848
C        10.24368919286670    2.43828863923773   11.36279688109699
C        11.15107851124611    1.79800265149816   12.18859803434406
C        10.73149814496266    1.46982473978271   13.46980870326707
C         9.42453714086785    1.64248848085716   13.89802634466792
C         8.02217147356680    3.48777954829744   10.81648061477381
C         7.42525993203150    4.63393452591323   11.64439507678541
C         6.90821760865881    2.65556839417018   10.16446510202104
C         8.80933647009079    4.14585887886150    9.67206411232976
C        12.58346495799366    1.50247909983993   11.77252811776464
C        12.86372501991647    1.86854212109921   10.31226583312477
C        12.85606326629580    0.00161044055535   11.94571490565862
C        13.53772994587891    2.31130341543497   12.66261806245523
C         9.08030512324943    1.37798378921404   15.36614855679275
C        10.32960535354498    1.09759893557657   16.21610672360376
C         8.43616429012514    2.64357731987138   15.94783870115253
C         8.14979436218084    0.16842837096147   15.53806695237612
C         4.13496573709286    3.74642327134698   12.49507966421588
C         5.53437724077417    4.59010624068230   14.82014237486786
C         4.97729308578941    2.08347042834453   16.03478490936599
C         3.70373247852788    1.22157121513820   13.67043672472230
C         2.93319141681605    3.61852565379080   14.98730500488178
H         7.13262936127387   -2.79571091909952   12.40079409976203
H         5.39196691338085   -2.63629124687226   12.88371815698253
H         6.60436778521727   -1.73082159865635   10.14868547828714
H         4.86385741944943   -1.57220409884106   10.63257841606085
H        10.57389202293802    2.76996114200302   10.39740316996043
H        11.45387230390416    1.04854139785333   14.14488492282504
H         8.21989756172110    5.27533764752080   12.02160709310396
H         6.85307331736351    4.26746156502212   12.49563249757973
H         6.75993649764171    5.23435313024843   11.02708888828383
H         6.10360521634110    2.43312701840628   10.86249686434876
H         6.47837229233045    3.20720407440585    9.33070108961708
H         7.30663474932172    1.71531383402796    9.78823437161566
H         8.14952909950610    4.82912541594109    9.14100670032561
H         9.16516735716930    3.40952691342389    8.95513424259639
H         9.65046299910913    4.72390237861918   10.04760662851514
H        12.19695948724692    1.33276536892023    9.64035846147067
H        12.75662734789920    2.93787673856148   10.14594206876107
H        13.88617611456534    1.59406300324635   10.06087808086358
H        12.16546618206932   -0.57798529154099   11.33655293427185
H        12.74060293470842   -0.30876519270726   12.98030613574619
H        13.87161167728713   -0.23230080706356   11.63364026554948
H        13.43343840840156    2.03587345854384   13.70846938623582
H        14.56880992521849    2.13347852107284   12.36490234218573
H        13.32941310065934    3.37504849598450   12.56785907457916
H        10.78812032272828    0.14733735463912   15.95184450355725
H        11.06325982841608    1.89491765602119   16.12215300471438
H        10.03577809518563    1.04089037346825   17.26235022563005
H         9.14176462614595    3.47183851724355   15.91164349273981
H         8.15175817409261    2.47669836936724   16.98487080240740
H         7.54301523354890    2.93548252605851   15.39716018514444
H         8.15560124951738   -0.15445739838911   16.57725707122655
H         7.12121735897605    0.40395293045321   15.27233509965476
H         8.48426455302455   -0.65998722671429   14.91653802496092

