22
CSD_code = UHUPUI | q = 0 | S = 0 | Stoichiometry = C7H10Cl2N2Pt | MND = 4
Pt       -1.38346578324688   -3.31549190175385   -4.82255371849290
Cl       -1.14846830822563   -1.41422858194215   -5.97433156438261
Cl       -1.38277541574940   -4.53494071341215   -6.69501944187138
N        -1.42787068074687   -2.45585825770724   -3.02490266392368
N        -1.60232421809497   -5.05669882611920   -3.63860265412184
C        -1.32439913343307   -3.30238058812347   -1.98067619776381
C        -1.45764587729979   -2.85077348191695   -0.67912550958562
C        -1.69894443614849   -1.50480356971027   -0.44040203844613
C        -1.79566154744407   -0.64568296854658   -1.52350980149321
C        -1.65619148301674   -1.16137468306578   -2.79791552104147
C        -1.00749090724730   -4.74826824381507   -2.32926058559378
C        -1.45642176345336   -5.75731660223260   -1.27239343846422
H        -1.15870204055304   -5.85186999779602   -4.09655134187379
H        -2.59752665183263   -5.26400362990579   -3.54788566960017
H        -1.37058082304532   -3.53659910571192    0.14703146390999
H        -1.80444960298040   -1.14189207473780    0.56981328650971
H        -1.97557887495320    0.40792385758575   -1.38705915403109
H        -1.71229626661428   -0.53796364949069   -3.68124243557396
H         0.08366037723897   -4.81423810221242   -2.45076389996148
H        -2.51104557908862   -5.62545270743659   -1.03852969433162
H        -0.87887097141231   -5.65462642020828   -0.35890948273299
H        -1.30625001265294   -6.76805975174022   -1.64630993713282

