99
CSD_code = UHUXEA | q = 0 | S = 0 | Stoichiometry = C46H40N6NiS6 | MND = 4
Ni        5.12384339335758    5.49347552882764   -0.00034517452381
S         6.78079360851610    5.49831105874462   -1.51545814153110
S        -0.83320253336504    3.07533019211384   -3.72211671789307
S         9.18561466498199    7.16725186667859   -1.37391807168765
N         3.83803549930252    4.69724252978366   -1.19211979524164
N         2.71411908015785    4.16761126708341   -0.65743602898981
C         7.77434081067553    6.53429140603216   -0.58079336974054
C         9.91136181159869    8.23255326961757   -0.05713443293297
H         9.06803419668610    8.74386379831468    0.40699931824802
H        10.39820903773732    7.57577027298995    0.66263414629555
C        10.88817177415670    9.19407655891950   -0.64847084132099
C        12.22849678549031    9.14497928501745   -0.28861025431541
H        12.56343252362441    8.40403502964302    0.42307574842572
C        13.13075778491716   10.04417279083971   -0.82948034457331
H        14.17099034707003    9.99919163661586   -0.54173621365850
C        12.70383354950250   10.99445563932375   -1.74065771856614
H        13.40956614769940   11.69234292255830   -2.16666296043980
C        11.36909106169207   11.04578097951256   -2.10748452093517
H        11.03179373783517   11.78422470928112   -2.81985988491447
C        10.46611121113973   10.15197387864362   -1.56338858541429
H         9.42565356044014   10.18734955313305   -1.85183460901877
C         3.93010819116333    4.71359699239933   -2.49371807134815
H         4.86234659983117    5.08366038818641   -2.90311361997421
C         2.97627097323194    4.29236527756213   -3.48246612601028
C         3.35998842114649    4.32528408773697   -4.82937033652059
H         4.35002271840438    4.66742803779875   -5.09162019214340
C         2.50885284958772    3.91680188495131   -5.83088027744850
H         2.87594747685057    3.96060443046864   -6.84137508192265
C         1.20885457513190    3.45803455670399   -5.56719504064846
N         0.36646666865775    3.03631503389851   -6.58216457347404
C        -0.72142586378694    2.18758341357427   -6.34784456796231
C        -1.26167856826997    1.40687919354250   -7.37224860644854
H        -0.85136018750767    1.44556322262833   -8.36606666968332
C        -2.33908941385242    0.56439260600085   -7.15762874134254
H        -2.72618472293469   -0.01128171138451   -7.98470779054553
C        -2.90732377030467    0.45407201578306   -5.90364384045118
H        -3.74154041404875   -0.20630541112588   -5.72821734321730
C        -2.38977688583179    1.21411200540375   -4.87127670022862
H        -2.81449402514159    1.16538094301835   -3.88019015933231
C        -1.32814331044744    2.07578525614265   -5.09184841646369
C         0.81826141944705    3.47303795024677   -4.21995336423360
C         1.67206405382051    3.86454908355883   -3.21385057563787
H         1.31393415716137    3.86765041801634   -2.20121198700668
C         0.69951916285264    3.37514640736727   -7.95307071888452
H         1.14505807176131    4.37373644135711   -7.95026129884001
H        -0.23608852489392    3.44594079335412   -8.51432734535887
C         1.64594974479989    2.38997663119323   -8.64523240374840
H         1.83892175460990    2.73049843389807   -9.65971689143621
H         1.21801803839952    1.39253261363539   -8.69000705766681
H         2.59321057797295    2.31449840824788   -8.11893787998029
N         7.53332441886431    6.81971356477599    0.65686314777764
N         6.40935877721084    6.29010307899249    1.19145420286780
S         3.46663496467250    5.48943629936859    1.51454564353361
C         2.47309377529223    4.45323023870251    0.58015575520139
S         1.06191945900373    3.82028980680576    1.37346342184582
C         0.33630672594884    2.75441933894638    0.05704171152269
H         1.17971426421448    2.24322252421044   -0.40706534906683
H        -0.15083859107041    3.41084792602761   -0.66284567737433
C        -0.64012880317874    1.79284052087869    0.64890252212892
C        -1.98076498811479    1.84217516706945    0.29021348975065
H        -2.31619809772128    2.58320948749865   -0.42114126004400
C        -2.88268784184919    0.94303761283909    0.83175530336725
H        -3.92313352604636    0.98811755087501    0.54482391930616
C        -2.45510385360322   -0.00743319343717    1.74242553292764
H        -3.16054024357149   -0.70534831929848    2.16886218002494
C        -1.12004261191160   -0.05902231162962    2.10805874939728
H        -0.78224201255181   -0.79757801397160    2.82007730609503
C        -0.21740906080326    0.83474122294087    1.56330943440898
H         0.82326903243321    0.79924254387375    1.85092175657501
C         6.31724292026827    6.27360264143685    2.49305842195807
H         5.38501823026045    5.90340399160066    2.90238489363694
C         7.27105873846859    6.69469899665121    3.48190140395146
C         6.88730509819416    6.66162151767304    4.82879221911432
H         5.89725485406743    6.31947327777226    5.09096492271558
C         7.73838965720540    7.07004497460730    5.83037015457290
H         7.37125377293288    7.02615587692692    6.84084409758855
C         9.03838600052495    7.52887560264449    5.56677987224143
N         9.88072910938419    7.95050092736659    6.58182681415549
C        10.96857830987292    8.79932701358401    6.34764532084902
C        11.50875844401487    9.57993073705052    7.37216283300195
H        11.09841786137599    9.54109338209402    8.36596579088119
C        12.58611693431903   10.42251807171390    7.15767409007883
H        12.97314251864171   10.99812558235985    7.98483184317561
C        13.15436631787445   10.53304525198715    5.90371405998170
H        13.98853088651138   11.19351477574059    5.72838783307910
C        12.63689981979930    9.77309566169506    4.87123802801263
H        13.06163943500482    9.82197480977496    3.88016840964662
C        11.57532089906092    8.91132013584078    5.09167885845283
S        11.08048427791525    7.91189014372110    3.72182754644784
C         9.42902246795112    7.51403661833394    4.21955132778334
C         8.57526551771533    7.12259065700256    3.21337892829016
H         8.93341720548352    7.11961353324290    2.20075449194871
C         9.54764999672687    7.61148057604596    7.95268048568900
H         9.10214315365673    6.61287645590604    7.94972041877163
H        10.48324353103830    7.54064080573994    8.51395578583543
C         8.60116111077745    8.59652136607424    8.64494889601323
H         8.40819000920105    8.25584945448535    9.65938489766892
H         9.02904324983833    9.59397903661301    8.68987264740672
H         7.65390006366951    8.67202950101392    8.11865704750183

