44
CSD_code = UHUYOM | q = 1 | S = 0 | Stoichiometry = C17H22N3OPt(1+) | MND = 6
C         7.02814783383268    8.41048529930997    8.30217190564731
C         7.43770461739341    8.28080258192224   10.44909742937750
H         8.02447114179376    8.46560397387890   11.32446930970273
C         6.26877383772313    7.64412603876846   10.23910071544917
H         5.60420418374678    7.14431771355625   10.91112847547380
C         4.87245183878318    7.18596007544680    8.24060845841568
H         4.84556731205242    7.53285793965084    7.21093404779277
H         3.96775700801923    7.50342034220329    8.75949675629879
H         4.92009921204973    6.09613269958646    8.25161929046503
C         8.11483639471342    9.71442600385175    4.38038553409695
H         7.23526089586925    9.73324540429435    3.73219358859280
H         8.87912972706733    9.12394997765411    3.87921207557784
H         8.48972071127111   10.73749059123884    4.47153172246907
C         9.42951438291143    8.11895943219914    6.38753850767550
H        10.18212871986739    8.82706758119347    6.03787525655703
H         9.52126082662599    7.20835141708370    5.80024874614482
H         9.61855912015232    7.87649706501773    7.43474246200035
C         6.93417770741249    7.29693588678389    5.35185750928951
H         5.88125260637868    7.41083538634697    5.08293603820056
H         7.03280577192379    6.44738020324672    6.02965972297210
H         7.48016432924144    7.06487471112471    4.43944823296560
C         9.29643677592759   11.13765980332740    7.90030948716427
H        10.05234302369163   10.37057345508905    7.81028123067595
C         9.51074729369346   12.25193544755901    8.69513401180468
H        10.43964663432897   12.36804489979782    9.22891503540446
C         8.50260775963773   13.19812497120378    8.79008494257070
H         8.61899181489178   14.07087469313053    9.41367301325159
C         7.33786791937960   13.00530067889360    8.06789586793927
H         6.53341582554657   13.71843873757125    8.14207181485785
C         7.20964771084771   11.87011886179162    7.26750792482951
C         6.00659267331657   11.62666744021102    6.45112959145141
C         5.16674030912748   12.67172736892745    6.06612762546147
H         5.40215198877552   13.68868371476308    6.33300822579035
C         4.04423663413078   12.39939304087453    5.30477495897363
H         3.38929265049653   13.19727299023744    4.99168129227465
C         3.78551142699078   11.08501336438570    4.94997394804130
H         2.92082286885532   10.82178230652737    4.36340678036485
C         4.68014499109157   10.10784594532042    5.35187143811062
H         4.51681033403748    9.07584889716478    5.07219877534371
O         7.88279508535324    8.74128007884217    9.25972046171880
N         6.02936019279287    7.73991915178015    8.88727052144842
N         8.17925969761502   10.94873558493859    7.21385998607404
N         5.76166021300934   10.36259815031425    6.07622302353106
Pt        7.58562799763644    9.03964009298627    6.25452425775270

