41
CSD_code = UHUZIG | q = 0 | S = 0 | Stoichiometry = C10H20Cl4N4O2Pt | MND = 6
Pt        7.48471724531805    7.48456381169603   -0.00004484183873
Cl        6.68908957374130    8.51476046238963    1.98768254658018
Cl        5.83971112847513    5.78823616469596    0.23540698766288
N         8.90240733817884    6.42635914705610    0.99247080088677
H         9.81710679735220    6.47344476544624    0.54496839502962
N         7.69696975595073    5.64618125282673    2.75576957391516
H         6.90961857223419    6.12221545476891    2.30359411790605
O         8.19018992362619    4.34554559092130    4.57759095750564
C         8.86637327756346    5.75476628179567    2.09532547384234
C        10.11969772940206    5.15218050416534    2.65217797722029
H         9.89091159843959    4.20074488148651    3.13120277027021
H        10.83422594494519    4.99052491599146    1.84321941169304
C        10.71744121409475    6.10532336911572    3.69292800168659
H        10.88189380617354    7.09140420925349    3.26459638355418
H        11.66749564937199    5.71156676133196    4.04200666565392
H        10.04992917049097    6.19725821169789    4.54483087478671
C         7.38412692452479    4.95112078082203    3.92300515259531
C         5.92311082621728    5.07432971294591    4.23645100413403
H         5.33471788998472    4.69166811548468    3.40494455618616
H         5.66813815110514    6.12336678643325    4.37451422061315
H         5.68997246405510    4.51851120630445    5.13960765246636
Cl        8.28042162415034    6.45389884758604   -1.98777607986812
Cl        9.12945264437120    9.18093178317487   -0.23606208019568
N         6.06702879335203    8.54301274667854   -0.99232611047380
H         5.15242955719338    8.49610920210353   -0.54459553633971
C         6.10293178443186    9.21456661003457   -2.09520609342640
N         7.27218901055513    9.32278149437116   -2.75595303854775
H         8.05946558528158    8.84635006126757   -2.30407155600426
C         7.58503656292787   10.01803389834193   -3.92307078005490
O         6.77907187142031   10.62413309081965   -4.57728554502968
C         9.04593579180913    9.89429255177341   -4.23683044655540
H         9.63465640562852   10.27655054328633   -3.40530187926222
H         9.30046940814172    8.84506609380852   -4.37524216879672
H         9.27908976444609   10.45026873119462   -5.13993526124728
C         4.84959084816470    9.81734405041354   -2.65183079400350
H         5.07842900582214   10.76880882681878   -3.13077234904819
H         4.13516870954272    9.97898705667419   -1.84277465103962
C         4.25163057937022    8.86438427848169   -3.69262838466241
H         4.08716028151024    7.87826187700714   -3.26439822992070
H         3.30156401517380    9.25824276630637   -4.04156251193423
H         4.91903277547084    8.77250310323589   -4.54462518593701

