92
CSD_code = UJABOX | q = 0 | S = 0 | Stoichiometry = C27H52N6RuSi6 | MND = 7
Ru       18.64542126463001    0.00023449758785    4.21575534951050
H        18.64521574821593   -0.00008231388297    5.74685581048217
Si       20.51276915305349   -1.17941595708025    5.04309975258121
Si       23.37270424407943   -1.53250252853528    3.88561186165758
H        23.23318271695733   -2.63955233091751    4.82970506848741
N        20.28573983154900    0.74005029261890    2.87611715041931
N        21.83511552391957   -0.69083781528165    3.87170863556017
C        21.56449778939839    0.31755314174134    3.02000853110761
C        22.29995569277453    1.88817921262679    1.32851235291115
H        23.08936599090730    2.34928306450295    0.75293206137394
C        20.97091276883728    2.25630519589831    1.14386083204988
H        20.68144757586150    2.99212169233918    0.41112237258107
C        20.02575946976736    1.66804458559320    1.95214991622505
H        18.99341161761112    1.96757729628104    1.84385279481257
C        22.58759400726037    0.92543568653360    2.26121145462828
H        23.60709290492913    0.63322139871642    2.43691640734852
C        21.39752745618082   -0.78700086973318    6.71814287629015
H        22.38581586403378   -1.23271625952762    6.76573120533402
H        20.81281161360150   -1.17244865663106    7.54559584582711
H        21.50295006438676    0.28278984964452    6.86699722277917
C        20.48304953737848   -3.11937544305549    4.97949496160518
H        20.78956573852470   -3.50609290486791    4.01266908416881
H        19.47588914121215   -3.47615267885740    5.17228688416169
H        21.13082625147808   -3.54964076542795    5.73492545504913
C        24.80583507681344   -0.41530347289658    4.47365392952798
H        25.46955503970490   -0.12343606081369    3.66453841524448
H        25.41296321551095   -0.93839359190234    5.20550747032176
H        24.43596189631239    0.49009396898415    4.94551275643346
C        23.69311375892126   -2.27376424957990    2.15733757295086
H        22.92988690295994   -3.00764056637735    1.91519520237756
H        24.65289427179479   -2.77977883192304    2.12975765300158
H        23.69065246243058   -1.53008983574763    1.36605339978389
Si       18.73250693913887    2.20689209718688    5.04334770512883
Si       16.68944938045359   -1.02769130643832    5.04336665264180
Si       17.60834094517039    4.86042556045149    3.88603866968219
Si       14.95373957674853   -3.32777974085300    3.88557017011595
H        18.63662556294318    5.29308173408099    4.83038006653864
H        14.06459254267717   -2.65327000454056    4.82938420280880
N        17.18365833061334    1.05076138734080    2.87653408222619
N        18.46550430806462   -1.79098945753732    2.87649445338241
N        17.64815389274076    3.10798523514041    3.87215535801179
N        16.45155917732542   -2.41726412751924    3.87203367434875
C        16.91019817497706    2.36946679800578    3.02041553359876
C        17.46025289414771   -2.68721240450871    3.02049800439648
C        18.45287872602161   -4.10986972054408    1.32942698610123
C        15.18232477730631    2.22120826051558    1.32884706433882
H        18.45756907530231   -5.02421266606432    0.75405952860085
H        14.38833951918708    2.67436515000066    0.75323699407550
C        19.43617021496149   -3.14294166175550    1.14459700872536
C        15.52796850208741    0.88613619501787    1.14421403355664
H        20.21820168238760   -3.26037060854053    0.41195198462628
H        15.03537298664704    0.26757528004107    0.41151196005999
C        19.39919745306501   -2.03005520133646    1.95259251551921
C        16.50997830004311    0.36167855343782    1.95250720869262
H        20.17475457784224   -1.28578425036614    1.84412112764762
H        16.76672208546723   -0.68213634486077    1.84419237122357
C        17.47521061625109   -3.87737496118436    2.26196312269251
C        15.87231671975335    2.95164533382262    2.26152796813040
H        16.71235550872411   -4.61413749054650    2.43773496149887
H        15.61574437517647    3.98071023871781    2.43714323855482
C        16.58670874959921   -1.98979549978121    6.71854842688039
C        17.95066849807044    2.77693584430120    6.71855366126438
H        15.70649892302071   -2.62272730246171    6.76601492387853
H        17.84263152205173    3.85568332079820    6.76630002371801
H        16.54510459364627   -1.29049639141925    7.54582712778011
H        18.57696046709911    2.46312402228043    7.54585228716410
H        17.46039512160532   -2.61601523713588    6.86770195677829
H        16.97148341924149    2.33340486186138    6.86752967646351
C        15.02442936063843   -0.03175914433456    4.97921821855297
C        20.42737842586591    3.15125317360593    4.97954357661102
H        14.53632288539191   -0.10418955122685    4.01238593326090
H        20.60896006324544    3.61001621231725    4.01267769792679
H        15.21913670168320    1.01890799183636    5.17164407506361
H        21.23996986844666    2.45744313281173    5.17229770549134
H        14.32791075072361   -0.37733655176271    5.73476292153192
H        20.47619218749151    3.92742905268233    5.73492285991322
C        15.92417815756190    5.54314104916326    4.47373136663110
C        15.20432634645937   -5.12756113923875    4.47371891987598
H        15.33982058074348    5.97221543800521    3.66451096577852
H        15.12199714958513   -5.84844511708192    3.66503592610837
H        16.07350930005316    6.33036600645730    5.20574027988799
H        14.44953690501041   -5.39065693981065    5.20784960770132
H        15.32474313527239    4.77015182561558    4.94533312344074
H        16.17454558466445   -5.26103714178567    4.94287663185704
C        18.09054244534940    5.50851623943428    2.15789868942820
C        14.15219750827244   -3.23449317663987    2.15703951393952
H        19.10737557501673    5.21352877546588    1.91560468610220
H        13.89671812311573   -2.20679856751722    1.91565741846000
H        18.04993496234714    6.59274667927553    2.13052822817341
H        13.23505332223043   -3.81415210122444    2.12850311130522
H        17.44729782281649    5.13535155925797    1.36662214753178
H        14.79850010745978   -3.60245795095015    1.36580137800994

