55
CSD_code = UJAHIW | q = 0 | S = 0 | Stoichiometry = C21H31MoNO | MND = 8
Mo        8.63605980372046    2.56365335241982    2.80815617395786
O        10.36723427587022    3.42782196798223    0.62986252411277
N         9.68101971929163    3.15451333968470    1.56034223203079
C         7.44808083352259    0.90909844839196    1.72633299422923
C         8.58262661350963    0.32879112326716    2.38689094216535
C         8.37370056060391    0.45168768591394    3.79584906859034
C         7.15362600792446    1.14443229249438    3.99902331897407
C         6.56405943035826    1.39129752807297    2.72619107462394
C         7.14157112223770    0.76202729176268    0.26404647084751
H         6.74365131360700   -0.23572419637678    0.06275985078016
H         8.04026728763060    0.89758969587281   -0.33740126147347
H         6.40232418424556    1.49380245809306   -0.05565518083508
C         9.61894788428156   -0.53153655673817    1.72444783138079
H        10.52528096983195   -0.58676547152358    2.32491308464302
H         9.88251100235645   -0.13480972286212    0.74467904480575
H         9.23439304565909   -1.54563459241013    1.59004073162262
C         9.19531940016402   -0.23479765427212    4.84715989666607
H         9.03460978919606    0.20282985945758    5.83076214741030
H        10.25844611083404   -0.18241374346305    4.61667590652321
H         8.91210572430497   -1.28896856695814    4.90002238149414
C         6.47054034890282    1.34695211734867    5.32120012866174
H         5.87130865308365    0.46767956915025    5.57069944614914
H         5.80249574722043    2.20695203352619    5.29252527028000
H         7.19032988749635    1.49922469370180    6.12562586312737
C         5.16038463608313    1.86126637570031    2.49669545723124
H         5.06337535330059    2.37253072567874    1.54092313979699
H         4.83341244688844    2.54712815377253    3.27598591266585
H         4.48565312028016    1.00158628847663    2.49544914819809
C         7.25600944614119    4.13353692290873    2.34191172408291
C         6.94441799584876    4.45635677758161    1.02348314581542
H         7.47833913645264    3.96482642870941    0.21824351219594
C         5.97896977330698    5.39758491756259    0.70643824379046
H         5.76460637556136    5.62244232239169   -0.32918440464366
C         5.29023650606840    6.05233676732872    1.71285253624835
H         4.53494012367107    6.78632941525015    1.47171834248684
C         5.58076214132945    5.75762422958803    3.03291804537702
H         5.05300467802947    6.26330807594367    3.83046895523492
C         6.54521014832291    4.80941499973673    3.33367331820521
H         6.74049218584708    4.59563325136523    4.38477120064013
C         9.87281432481022    3.10945384210927    4.37136854179773
H         8.99837280285137    3.81811280619479    4.10980867587416
H         9.67843906231345    2.66454869756722    5.35676883187560
C        11.18613252297265    3.86695119899970    4.42180044986407
C        12.27724796931461    2.96246111601590    3.83125749698580
H        12.04979359678500    2.73665920967145    2.79199381058248
H        12.33732863303057    2.02871035515604    4.38658286816569
H        13.24541851247041    3.45512624998352    3.87859478276526
C        11.55157091892588    4.21156529258744    5.87369796231082
H        12.49002032659060    4.76039810576917    5.91151125637550
H        11.66400885421676    3.30738591611626    6.46940627392577
H        10.77777597729496    4.83055814920726    6.32541606137433
C        11.10857207010838    5.16758765733746    3.61601057843185
H        10.90034606075267    4.96805262641684    2.56722416681781
H        12.05410546445787    5.70261106551890    3.67693250513095
H        10.32302912015940    5.81570910680008    4.00732751961725

