51
CSD_code = UJAJOE | q = 0 | S = 0 | Stoichiometry = C19H26F4IrP | MND = 8
Ir        7.77317760356816   17.70456837393905    3.76594747067748
H         8.56066192491686   17.71470746088205    5.08571208941525
P         6.20047315748008   19.03355934522139    4.82515732630682
F         7.78449666094170   12.64034088723427    5.71662621888518
F         5.16177806032132   12.18213620659774    5.03949129080536
F         3.69999431977946   14.24402447285102    3.96115524711709
F         4.81365356679762   16.64262901272607    3.56815693877692
C         9.15524862294547   16.89191697951052    2.28200290435390
C         7.85695641983444   16.84016883078815    1.65944522609034
C         7.36804161746203   18.15067796970371    1.55549102736636
C         8.38216025720846   19.05226307780234    2.05015247515290
C         9.50409444908492   18.27995763083293    2.43343121634490
C        10.12160541032505   15.74843189658679    2.34086787852086
H        10.64163818613541   15.64950422613684    1.38540722791494
H         9.60686001013536   14.81205264545373    2.54585757359533
H        10.86559299783120   15.90536861187803    3.11832413035261
C         7.20087085465244   15.61864223252971    1.10073967558861
H         7.50234318133185   15.48221112579116    0.05961145474989
H         6.11647552573339   15.70944478756054    1.12580248475753
H         7.48484621300181   14.72590817779366    1.65528276830285
C         6.12125301964224   18.53768627129885    0.82551792632231
H         6.23888250174079   18.33320296814663   -0.24093956004391
H         5.90305714258376   19.59658807485577    0.94178299484456
H         5.26331453410637   17.96755946648078    1.18003595189913
C         8.37180784488738   20.54043614555916    1.87386307690331
H         8.70002253794138   20.79721947864047    0.86379777064562
H         9.04657310409800   21.02318082621739    2.57863176139065
H         7.37473850877132   20.95594943404257    2.01623329518564
C        10.86616422973811   18.79930006658028    2.77292653525021
H        11.45859226911849   18.89643226968749    1.86033604826498
H        11.38689830811475   18.12161882874801    3.44481308586837
H        10.81281291817559   19.77619165728357    3.24850059095272
C         4.80427548384017   19.77217589036076    3.89443946320086
H         4.16794688806905   20.33607756711454    4.57474729850313
H         4.22214711734887   18.98884076868010    3.42019397169089
H         5.19030383427287   20.44079511021881    3.12942171370716
C         5.32851386407216   18.34342523879685    6.28404712146186
H         4.80047928200806   19.13396036575698    6.81485622963457
H         6.06417704482608   17.87993708708427    6.93775382882543
H         4.61834366133197   17.58669494304869    5.96423718282738
C         6.92215112923899   20.55042320068207    5.57014011437956
H         6.15100506463936   21.15480967768313    6.04498399717660
H         7.41514672608369   21.13488468102735    4.79744845601247
H         7.66474573113288   20.25279531539108    6.30586723428736
C         6.91599053594129   15.94831149150409    4.43613565243025
C         7.62244776585286   14.87503085272114    4.98888168551259
H         8.65362617134247   15.00020879956517    5.27801003537398
C         7.04683954243661   13.63480544411531    5.18781688059772
C         5.72280623990831   13.38722346653400    4.84875526752868
C         4.98755115409563   14.43043109860747    4.30346044795019
C         5.58991680517724   15.66528956182654    4.10954131632064

