65
CSD_code = UJALAT | q = 0 | S = 0 | Stoichiometry = C18H40O2P2PtS2 | MND = 4
C         6.53240022021602    6.77551895008015    9.32940149844145
H         7.34625201066551    6.62272767898653   10.05547748472112
C         7.12772324070418    6.98897336325613    7.94615924869932
H         7.73518448634764    6.13047269057240    7.66831190601244
H         7.74944419458043    7.88002495242803    7.94304958173612
H         6.32923428274216    7.10254989996827    7.21707274217434
C         5.66748213832563    7.94166952699051    9.78358235148649
H         4.83941533521448    8.07565614420782    9.09188352362967
H         6.25994958820709    8.85183839390605    9.81878020387910
H         5.26609441464675    7.74050002862255   10.77461298708359
C         4.65993640565754    2.18883373413743   10.34158290648331
H         5.40628522606826    2.02682346871936   11.15894820123849
C         4.88593027943660    1.14158831094940    9.26112496579422
H         4.19490717253381    1.30511153734246    8.43749400474416
H         4.73049772480297    0.14710870577332    9.67107800402264
H         5.90377521632436    1.21499547318892    8.88344855232487
C         3.25658366476428    2.13742233815942   10.92774573942608
H         3.13596541798048    2.92396512140621   11.66972650907605
H         3.08336366719861    1.17352482489842   11.39878716735349
H         2.52364645363495    2.29063536268453   10.13917130323730
C         8.75921789732370    3.17809845259090   15.13155809183756
C         9.94306014016784    3.24728237274991   14.16261905177198
H         9.59641467601475    3.59684693281430   13.18514250340136
H        10.44512704127756    2.29419460840892   14.04028751047876
H        10.67524875920474    3.96076983290754   14.53838403635337
C         8.25155634565941    4.62057184507567   15.25931103322817
H         7.60997727264968    4.77187577833478   16.11886028000809
H         7.70505598231860    4.90421622242934   14.35886122837832
H         9.09953079172200    5.29523969683125   15.36468616471097
C         9.20965743007366    2.63489699519811   16.48432017585193
H        10.08042534402895    3.19480726904489   16.82405733801253
H         9.48415840251890    1.58556309605958   16.42132993303627
H         8.43318741774763    2.74867930358887   17.23629921024229
C         5.91068706160042    1.86487833083356   15.45195270738363
C         4.71588954093328    1.47804634620425   14.57478655366383
H         4.74800369011967    0.44001904091440   14.26531069699331
H         4.68936348392730    2.11588007454490   13.69086924171326
H         3.78938172433998    1.62940256760131   15.12651008280057
C         5.54622047040423    3.18132321206217   16.13702255536770
H         5.46939274686201    3.97999431582522   15.40161993056152
H         6.26926093980753    3.45190000445779   16.90014910096537
H         4.57907617759387    3.07764010384581   16.62822857412513
C         6.19381839807132    0.79224643030748   16.49967506054023
H         5.29999641258020    0.63605537362227   17.10309247483550
H         7.00078006276846    1.08875853244360   17.16302015769004
H         6.46070952971851   -0.15571530775852   16.04267388637339
C         8.08648243671522    0.54158303624715   13.55883742715172
C         6.96702909119269   -0.45554827515912   13.25208876368997
H         6.17145076407794    0.03777162485932   12.69668397972905
H         6.56081130815145   -0.92436638782548   14.14440468269591
H         7.37270977820915   -1.24682135291798   12.62187610946035
C         9.20361154673887   -0.20336303133484   14.28250435819525
H         9.54122832648901   -1.02978586065607   13.65771784940396
H         8.84556284618319   -0.61634398877806   15.22410846933210
H        10.06275951440267    0.42652470359251   14.48668069347372
C         8.47042114202438    1.20121880337638   12.21288858004220
H         8.21980456003051    0.55134810218501   11.36660495361881
H         9.53367856366225    1.43899677457225   12.15004379674421
O         5.71974843607318    5.59860131737011    9.28698930970208
O         4.86362951394011    3.48089736526514    9.77696197224892
P         6.05459635443193    4.41169472560018   10.29473932077157
P         7.39120308119994    2.15920184648512   14.28267691988732
S         7.85779499315704    3.58997802171102    9.90211377234993
S         5.80415455005829    4.95639619595421   12.21227748666890
Pt        7.30135431375356    2.91060444224519   12.15813509286521

