64
CSD_code = UJALEY | q = 0 | S = 0 | Stoichiometry = C20H35FeIN2O3P2 | MND = 6
I         3.14287661694480    5.61819436562600    5.29142681481913
Fe        2.70917921617400    6.29513181973014    7.73643193958065
P         4.03404180280031    4.69832015492136    8.46622757659757
P         2.24352432638292    6.89692902966605    9.74606560114940
O         0.38462448968061    4.52082343113245    7.55360824865691
O        -0.18230591025772    7.28940911438757    7.46608781595131
O         5.28925208749882    7.29356037921088    8.42428693009987
N         3.86664790839694    5.32222898915975   11.17138902380512
N         1.87920311114717    8.01927710090251    7.01529117782766
C         1.26357508311186    5.25308548607700    7.64096370490765
C         5.56538975584026    4.33251558892752    7.50133983925098
H         5.23537701185773    3.95375767453751    6.53046013416114
H         6.04876189557705    5.29789234133026    7.32845783114126
C         6.56352910713734    3.35591750569484    8.11376668321165
H         7.03310049943291    3.76338857308921    9.00526588857509
H         7.34881692984874    3.15865436192440    7.38567059779929
H         6.09619414183434    2.40566526766909    8.36315179315048
C         3.28762389502152    3.01759115484562    8.68476374544315
H         3.98687184105533    2.39734045570262    9.25486566455228
H         2.39371012842484    3.15623845283137    9.30220894240583
C         2.92201972942349    2.32012114924343    7.38123909528354
H         2.24748395691828    2.92427612429677    6.78201640600626
H         2.42806894911779    1.37255270945521    7.59203001253529
H         3.80838253122972    2.11580292214793    6.78508509883068
C         4.79217330205839    4.88216442180386   10.14458196324576
H         5.16560891301385    3.89067021413484   10.42187974561646
H         5.64968445651973    5.56864637607862   10.04985509134500
C         4.41462881858369    5.04056980783397   12.48705389199982
H         4.55331970812381    3.96495447104431   12.59452128684473
H         3.71518535236168    5.37092549905863   13.25472104211489
H         5.38072487866259    5.53865221862858   12.65766962653394
C         3.56732861109605    6.73445757400994   11.01359560650052
H         4.45375350561473    7.31407300163036   10.71038013510632
H         3.18450425812294    7.14426369047795   11.95478529589963
C         0.89471379460142    5.88661762192612   10.50541968880765
H         0.00311499127527    6.12243761439829    9.91512442153244
H         1.16537237582727    4.84850781218869   10.28881639069811
C         0.59936864412763    6.02434182753661   11.99296168086721
H         1.44697004393486    5.69310152931384   12.58543247712694
H        -0.25254664833034    5.39535993499668   12.24712047890140
H         0.34993355643021    7.04610701766610   12.26971130012618
C         1.64945877049271    8.61039608156119   10.13490922668638
H         0.78558334741163    8.80830491628406    9.49324452046213
H         1.30280876891220    8.61076400739072   11.17332533043483
C         2.70448800052180    9.69276546796217    9.94931297736980
H         3.53462440656479    9.54760062359060   10.63672440176301
H         2.27258935707987   10.67502496771906   10.13841719702257
H         3.09623892174292    9.68278285570335    8.93681796857350
C         0.56965412301973    8.24879673668265    6.89405153651881
C         0.06895229365048    9.38645616557894    6.27217633172709
H        -0.99227296266537    9.54083780507798    6.17234079915842
C         0.96829767113244   10.32289631815948    5.79079862450197
H         0.60815514917554   11.21475061061634    5.30170715867597
C         2.32380078641370   10.10360184880008    5.95092157923982
H         3.05164464211768   10.81460574691291    5.59515194499368
C         2.74834747452514    8.93161952968687    6.55969535125898
C        -1.56473661312792    7.23185377995026    7.18888041266184
H        -2.10437147282871    8.05114464755967    7.67450509257606
H        -1.90382148997950    6.28119140612635    7.59779294614629
H        -1.75431664922433    7.24851281801895    6.11288129761490
C         4.17661968647099    8.59541356623805    6.78129943000665
H         4.76571229209452    9.45941053542602    7.10314184197210
H         4.62062122986879    8.22600842752127    5.85169103932259
C         4.26673460000715    7.41763635219399    7.77358230230391

