75
CSD_code = UJAMEZ | q = 0 | S = 0 | Stoichiometry = C29H42CoN3 | MND = 4
Co        5.29292467124889    1.40009053732397   13.91883043317699
N         3.53899317938317    1.25295590907435   14.00558795373050
N         5.13988788196036    1.50704008425069   15.77696826651490
N         4.99153642669925    1.13151455021709   12.06460178281969
C         7.87871427729676    2.65690698872213   17.97583273230686
H         8.34358241202999    3.57597168485958   18.29892667369138
C         2.83105644720454    1.29875365979163   12.84923109180477
C         7.01143406170725   -0.10126597452608   11.42910111355605
H         7.39300160044377    0.17372052849744   12.41867016739053
C         6.80655622857025    2.70425842744775   17.09568369749648
C         3.72123906848088    1.17979658400027   11.72942318355534
C         6.68489232742985    0.27119323588598   17.18277860172408
C         5.98072653791420    0.96360218656072   11.00963558790010
H         5.49676341640054    0.59503146897667   10.09678870551047
C         6.21584009376849    1.50113816292900   16.69351076161620
C         2.92618008482806    1.48191745892622   15.19580501393684
C         8.18214437671430   -0.19183473361313   10.44921548410291
H         7.80010544223244   -0.40225352544082    9.44623990379059
H         8.71889368275398    0.75601969189975   10.41678921892542
C         7.76639179244413    0.26791392556762   18.04888202172854
H         8.15255045377564   -0.66497934024315   18.42705989965236
C         6.02495295011644   -1.00820298428576   16.71653302960609
H         4.94416899397522   -0.83359250978354   16.66042516940689
C         0.80481733564270    1.60082359178725   14.10172195644221
H        -0.26845390488710    1.71248043129721   14.13594623502051
C         6.60623403892734    2.32658060113497   10.69469759141771
H         5.82044239812473    3.07052944645859   10.57927432000491
H         7.17940409608666    2.28408543923782    9.77290885498988
H         7.24670810193937    2.63828897017606   11.51316504693246
C         8.35939091679466    1.45214975313463   18.44791884828689
H         9.19681686447559    1.43223176827508   19.12997566975596
C         3.90768719633387    1.55165109528973   16.23344198950287
C         1.54505002469935    1.63708907090571   15.27487073003182
H         1.06680524769348    1.79647814049496   16.22830203513574
C         7.29560378532418   -2.56267069590884   11.92927419104812
H         6.77460756094423   -3.52184442337591   11.97808984224580
H         7.69245194881927   -2.34322989609673   12.92131095225490
C         9.15529358080842   -1.29412859752102   10.85994403546344
H         9.97784327762015   -1.34254927606374   10.14275240366992
H         9.57696369075413   -1.05263256921943   11.83800380986444
C         1.44644081199580    1.45992713884319   12.87865049547322
H         0.87064108810534    1.48554983976515   11.96694051683806
C         6.29833971174953    4.03452467188177   16.59049265899317
H         5.48983458561320    3.84902305103915   15.87619689970526
C         3.53348232511588    1.66162418615316   17.67819881339923
H         2.88823456655641    0.83036324949927   17.96274080811358
H         2.98091378630262    2.58575870118125   17.84940042689478
H         4.41807404074652    1.65606793604949   18.31043805373110
C         3.19391831263307    1.11503600786778   10.32540503177277
H         3.67610097398659    1.85619732858226    9.68968734428890
H         2.12523338365107    1.30341279466975   10.31766694285843
H         3.36409822247505    0.12773082547305    9.89375620874267
C         6.31929609859500   -1.46528525376410   11.52077136858630
H         5.49994288197836   -1.40928302361921   12.24139089775252
H         5.89238435560598   -1.71605705316959   10.54459018117420
C         5.74863283243910    4.88005187761114   17.74147897677448
H         4.96581810040003    4.34484759506638   18.27473763473736
H         5.33120441106948    5.80831779165824   17.35708205449591
H         6.53574267944007    5.12700234203596   18.45024122836606
C         6.25019897592176   -2.19633702627568   17.65002496343292
H         7.28378218985917   -2.53246468149524   17.61743580414770
H         5.61981570065219   -3.02769995971977   17.34035485805456
H         5.99596998219084   -1.93696483221681   18.67552871031583
C         8.44906575162371   -2.64254978561365   10.93615980263509
H         9.15438006902422   -3.41846441824294   11.24153061104475
H         8.06482566200333   -2.90962985494304    9.94862882319094
C         6.52596105145620   -1.33733941753691   15.30796880918975
H         7.60479256714938   -1.48033204217902   15.32068830273229
H         6.29336590703913   -0.50590219680265   14.62045934739042
H         6.05125340958615   -2.24267900896512   14.93525653849166
C         7.40320762326021    4.78357820564274   15.84438027108253
H         8.24010450658096    5.01116010127690   16.49992801054254
H         7.01505655566715    5.71739077768752   15.44349782749645
H         7.76054127353671    4.17447281237325   15.01858653419163
H         6.55424303850521    2.12582245315148   13.81688523734616

