45
CSD_code = UJATAA | q = 0 | S = 0 | Stoichiometry = C22H16Cl2N2O2Pd | MND = 4
Pd        2.76419317956966    5.33482197359029    6.60236361967384
Cl        3.71091220007009    4.17292005464505    8.32499394787742
Cl        1.80698176560436    6.50422681119387    4.89081222464508
C         3.66124404290069    7.75604731236829    7.76715469775122
H         2.68969373564341    7.65892663305679    8.25436129760049
C         4.49820564930176    8.82435160915674    8.03030918797684
H         4.19835248649133    9.58715583622308    8.73060452133125
C         5.72579551258609    8.89437821787186    7.37867040320283
H         6.39855678487426    9.71737755773888    7.56609840195894
C         6.07010230528043    7.89617901618807    6.49019980042860
H         7.01013994245538    7.90651198735456    5.96135519584226
C         5.17192195765639    6.84669539940521    6.27608574087754
C         5.43680362926523    5.78146499314064    5.39155561835698
C         5.72290465291656    4.89006866881840    4.62019385219890
C         6.01828748175945    3.83284143537683    3.74699214773506
C         7.21783749892404    3.81023744623737    3.02743316129445
H         7.90485406521459    4.63105718618511    3.15653288960581
C         7.51081430346378    2.76342534283039    2.17617857252894
C         6.58465070330252    1.69274293417314    2.03340828558838
C         5.39838559646211    1.71792493714305    2.73936542969923
H         4.67814376435325    0.92119946452927    2.64523405930642
C         5.09894015426673    2.78169307176241    3.59720037806736
C         9.60096137210364    3.67358158748628    1.51395111480837
H         9.19327015934755    4.63494070848424    1.18490126930173
H        10.40266071768410    3.37341048147712    0.84148205128255
H         9.99878257524723    3.77472285285446    2.52888670617446
C         6.11138630676561   -0.38966601048427    0.99656249044219
H         5.94499499790269   -0.93287842145007    1.93247934160168
H         6.62144024776801   -1.04034552813745    0.28840854466909
H         5.14780820057448   -0.08300944159636    0.57696708126504
C         3.88899160136725    2.81544435491076    4.30592499417024
C         2.85013259559247    2.88782322908674    4.92810701439363
C         1.61832595698324    2.90712788530468    5.61337199600059
C         0.65590412084776    1.90323241894539    5.47243863114169
H         0.85114951733268    1.06895748074498    4.81720092296199
C        -0.52411739656988    2.01035062284375    6.17983339837689
H        -1.28702056556258    1.25192547182337    6.09128847490946
C        -0.71671164406374    3.11118113095849    7.00905210269062
H        -1.62704549481228    3.22598628996059    7.57500228255595
C         0.28112681117582    4.06370392895922    7.09883822528495
H         0.17461004238399    4.94331132709376    7.73570028951745
N         3.99092904353528    6.79248077846771    6.91221961325291
N         1.41870431830727    3.96328361468954    6.41775717407933
O         8.63882507877715    2.65022771696554    1.43506773907566
O         6.96807002493417    0.71055963162418    1.18325510850336

