60
CSD_code = UJAVOR | q = 0 | S = 0 | Stoichiometry = C27H28Cl2NPPd | MND = 4
Pd        8.36557031988245    8.45431355800885    6.07408480260103
P        10.19383854016715    7.26786454598406    5.57141148124496
Cl        6.62919406155032    9.93496355451375    5.99247714920718
Cl        9.79100971085413   10.09130672895464    6.65135457393656
N         7.19932435138382    6.89683781063055    5.86150830667385
C         7.40927658390821    5.72887561643386    5.36857333119892
H         6.63105185249512    4.97507857126664    5.52247098406018
C         8.54169235167043    5.24561005322443    4.60861978506290
C         9.78675795658070    5.76838686763119    4.62438197249429
C        10.92384079896124    5.18328728023949    3.83419113807577
H        11.84945975830240    5.27326668275602    4.40919316506428
H        11.05403382522990    5.78585381857550    2.92850460884093
C        10.67186588774247    3.73244716199189    3.44247307544404
H        11.44149640269566    3.39887836325114    2.74516642993372
H        10.71849088657409    3.09403412743480    4.32736543865440
C         9.29108350808360    3.62734778849505    2.80987498192651
H         9.11454955821547    2.61932442227890    2.43147600039909
H         9.22771412919410    4.31964788901740    1.96824369168424
C         8.22806341532120    3.97835790042016    3.84339529528837
H         8.13528990426090    3.15967214512742    4.56550536884618
H         7.25685360568797    4.08622211424263    3.35411021369746
C         5.99896284628780    7.08361672900858    6.59041403176870
C         4.78318602503873    7.16735738452508    5.90474847946567
C         3.61971227944542    7.33277107519542    6.64051463044564
H         2.67711209654452    7.41751888573865    6.12059512771716
C         3.65707075302052    7.40417996735389    8.02063245289527
H         2.74226300752688    7.53044764857132    8.57941748686187
C         4.86894154647923    7.34297102636752    8.68452877197523
H         4.89930743535990    7.42844787291414    9.76068013256146
C         6.05695530531079    7.19151186153085    7.98592573665551
C         4.76400427197694    7.16664814768331    4.40544967218215
H         5.50438209899340    7.87911178313175    4.03704475436306
H         3.78395849606294    7.46206363255942    4.04157090476316
H         5.00169705916154    6.18414689864491    3.99667162342029
C         7.37976587876084    7.19576160308422    8.70236197320903
H         8.01454464272833    6.35940296659217    8.38894878260386
H         7.22673045380609    7.13068249394991    9.77716750085608
H         7.91279847534742    8.14875562146199    8.49569925252040
C        11.49917111519823    6.75896414730453    6.71601986645261
C        12.31736307865309    7.74643743220650    7.26223028182170
H        12.17786919416992    8.77427906189926    6.95586554364041
C        13.27224873803669    7.40340268212956    8.20091274753441
H        13.91015965522219    8.16678995446746    8.62050832582845
C        13.40682764320418    6.08492995609062    8.60866361663042
H        14.15494443171862    5.81943299102715    9.34080912587826
C        12.57245870783636    5.10764624686367    8.08997916471781
H        12.66703259344833    4.08362691242251    8.42112981577909
C        11.61283882635085    5.44155201886580    7.15170644381608
H        10.94894840905397    4.68432523583570    6.75510360930100
C        11.01228942379511    8.24340740519470    4.26776598692556
C        12.38021705496560    8.23672817280850    4.02467993487033
H        13.04066315570346    7.64928484396027    4.64731475977458
C        12.89844104774411    9.00336530692853    2.99473095087672
H        13.96354796385297    9.00644921975681    2.81469060990031
C        12.05908212692977    9.76860514675032    2.20306853052030
H        12.47014103144970   10.37020371040581    1.40612289630571
C        10.69236221646727    9.77266641450214    2.43862995579269
H        10.03963485984601   10.37748453325290    1.82703571191036
C        10.16767596716779    9.01341576936066    3.46694396826944
H         9.08813267857751    9.03273023912217    3.67353504484828

