46
CSD_code = UJAXIM | q = 0 | S = 0 | Stoichiometry = C18H18CoNO5S3 | MND = 7
Co       -0.69652549295110   -1.65432447093590   13.27776847392583
S         0.21933399109118    0.10395431500866   12.52583265332110
S         0.65326603582328   -1.69128308680375   14.93888493233105
S         0.71226180425745    1.97987038147681   16.37773399108217
O         1.89852378896953    2.55604689706907   12.55705851010631
O         3.28440337567760    1.82182050118798   14.17198514966340
O         3.42640560653517   -0.67492583201361   16.18157347173423
O         1.10391869121705    3.04082488248148   15.49472821592930
O        -0.39332564990837    1.14653390032111   15.99084699994984
N         2.06054514371208    1.05183893653721   16.72211360428131
C         1.41747535562170    0.52040258529306   13.67209160491039
C         1.58673608666451   -0.27640399014298   14.76712530016666
C         2.18447249002674    1.75156673467913   13.40189984135534
C         2.38979267011553    0.09985133582909   15.94300908255184
C         3.98996885044867    3.05338824167706   14.08967753548024
C         4.18614726175578   -0.36879585874104   17.34027166389589
C        -2.65176382887025   -1.62511662610931   12.57906320498550
C        -2.58183135477820   -2.35385984470809   13.79866562814991
C        -1.71105776492257   -3.45074826941597   13.60154361126997
C        -1.22815904418776   -3.39541335494855   12.26992471419823
C        -1.82019628122404   -2.27074524518871   11.63612656576384
C         0.42943060973580    2.63040469300699   18.00899169527056
C         1.11473929345896    3.75608457065509   18.41970090577713
C         0.92771428824359    4.22967506577384   19.70622311883623
C         0.06218252309062    3.58125961901969   20.58221455841722
C        -0.61630360405806    2.44760024230663   20.14456966317355
C        -0.43378035750143    1.96888081593757   18.85930727605857
C        -0.15815896260954    4.11069660795762   21.96555883209252
H         4.89322876997105    2.92718973251918   14.68134182747255
H         4.23339385442480    3.27875691861746   13.04919453865633
H         3.36221514972088    3.84930085604590   14.49461037125684
H         3.56218772458825   -0.44652206195012   18.23241127013340
H         4.99537900025823   -1.09498448046004   17.36751637923349
H         4.57577595903420    0.64816868339161   17.27476639045921
H        -3.30305790020663   -0.78991562509587   12.37895417330544
H        -3.17491901458254   -2.16784328999440   14.67959126978822
H        -1.51501434312446   -4.23735483486059   14.31181245065430
H        -0.62116125833906   -4.14480557461020   11.78766679341054
H        -1.72467973152160   -2.00814327270083   10.59547492926674
H         1.77382220076277    4.24610095034551   17.72138284724677
H         1.45649465504702    5.11183871743235   20.03639908657361
H        -1.29192564615805    1.93917228584042   20.81682961738887
H        -0.95392488983104    1.09732001872093   18.49495034622580
H        -0.38549716595145    3.30473512475434   22.65882257963499
H         0.71665457638705    4.64946151943643   22.32046189299540
H        -1.00178746589187    4.80124058533849   21.96532243163472

