36
CSD_code = UJAXEI | q = 0 | S = 0 | Stoichiometry = C12H14CoNO5S3 | MND = 7
Co        4.41626561758344    1.61348835646264    6.21199686769886
S         3.44118518431224   -0.19153287633177    6.74965106353814
S         3.28295056991090    1.73124574210153    4.40013086573388
S         3.45140797216275   -1.84034538984115    2.79383710514704
O         1.78249767488264   -2.63513888512666    6.39444501882777
O         0.62142970691611   -1.82733263217397    4.64247829010917
O         0.69446948735907    0.75842895391920    2.77650990992016
O         4.50650811502421   -1.01906513771977    3.31663268308561
O         2.98468067759136   -2.92991062668444    3.59987851150042
N         2.15049270248667   -0.91668601360863    2.31192129387796
C         2.39797703978158   -0.55203073282798    5.44425880126717
C         2.35546872300563    0.30175441604568    4.38039088436018
C         1.60914718236164   -1.79436641374303    5.55493524544872
C         1.70744695512833   -0.01436965945350    3.09705749864629
C        -0.08521335987062   -3.05959723518188    4.57414125842189
C         0.08313090175896    0.51182844346357    1.51932855291405
C         6.33117805535063    2.38156936741449    5.96110066775844
C         6.27937755032856    1.56935778475134    7.12784414425960
C         5.32867346981123    2.13153141951846    8.00974113895607
C         4.78367985074014    3.28702250997031    7.38934157729753
C         5.41506101229988    3.44541560752621    6.12969626791884
C         3.93840749944394   -2.47515392841589    1.18171840099777
H        -0.44770863972922   -3.34051198334528    5.56511434371065
H        -0.91376252366676   -2.89837786597779    3.88901438939478
H         0.58785325910917   -3.83431342543658    4.20229678832928
H        -0.74602557554294    1.21201587999195    1.44777184881484
H         0.79975810331313    0.67550609256341    0.71269632422660
H        -0.27101980841332   -0.51890501152005    1.47116358695204
H         3.06610373343679   -2.94298960425313    0.74764650649654
H         4.27391150607467   -1.63473655427013    0.59036384364979
H         4.73553581203297   -3.19273027132925    1.32673573891110
H         7.02551859422663    2.26874318195158    5.14412158912110
H         6.92524855095998    0.73416063333765    7.34480884348586
H         5.12082823386030    1.79400280640247    9.01169591754664
H         4.10529509232170    3.98892035008069    7.84739971814685
H         5.28124107375088    4.27650270171479    5.45663451348245

