120
CSD_code = UJAXEJ | q = 0 | S = 0 | Stoichiometry = C47H66N2O2PSiY | MND = 6
Y         6.44784705451089   12.78883394745361    5.06757682937893
P         8.20166047817314    9.94760339128174    5.65669682121978
O         4.88443572329464   11.76607077964577    2.93615524812050
N         6.73190204763435   10.37808610398839    5.23187145781628
N         8.02027278619904   12.98848233249231    6.94547608322934
O         4.88863878316076   14.97462960836266    6.19298533069368
C         9.30287478060101   11.30208579482346    5.85822983549576
H        10.32328086892289   10.93962393618471    5.72909124120614
C        10.43064350832280   12.81249204771877    7.45820190661522
H        10.21489382606518   13.54060812947153    8.23673510834593
H        11.09339193345527   13.26497725788919    6.72067000822829
H        10.95300226391547   11.96483784719148    7.89899088283859
C         9.16158967554428   12.35125378930230    6.77146433433520
C         4.65339014321467   11.85990382314617    6.29635426850748
H         5.19401583339298   11.72819820070730    7.24552271184965
H         3.70543031375661   12.36388679874072    6.51228042335891
C         8.22612837079284    8.91971263958374    7.17931289346998
C         5.48196257861670    9.73797844712603    5.25699425229084
C         7.04344058211696    8.59564205629384    7.83321746063951
H         6.09687653703840    8.88831271547228    7.40178768671790
C         9.16025584613535    8.98644864812677    4.41497797051888
C         5.89237251879340   11.56579649281900   10.10222846037411
H         5.85995580727687   11.89136474326867   11.13929698907980
H         5.73249034557602   10.48962258605126   10.08040782853105
H         5.07687555350484   12.04729215553382    9.56613392580210
C         7.23928280618584   11.89849505675456    9.45807368725971
H         7.27591866954790   11.41115184333435    8.47573786122527
C         7.42690311678592   13.38611963464491    9.25638629582363
C         7.67358732177674   16.94921712281466    6.03212310727500
H         6.66393088814018   16.56470040063016    5.91973316449484
H         8.02716997164017   17.29173498951016    5.06140010099365
H         7.65212585756210   17.80349138093572    6.70536502051625
C         8.07710417532384   15.27123439258804    7.86196401607210
C         8.59579382909352   15.84999556562760    6.56412084641962
H         8.63028051585585   15.04724120857031    5.81702281900425
C         8.38140127769403   11.33412908488624   10.30665809961990
H         8.40046686888108   11.80940782769147   11.28549807468664
H         9.33844732657469   11.50829889042207    9.82188489041878
H         8.25547297561186   10.26172178475138   10.44082990845937
C         5.24254648931164    8.45688810658235    4.75740045314059
C         7.07881916547289    7.88967107257252    9.02302613755553
H         6.15544397875377    7.63106399385848    9.52161118243427
C         4.39387401970655   10.53558716443022    5.70470370680794
C         8.29277901404224    7.51387176650084    9.57363465625650
H         8.31909047940058    6.96207455164789   10.50215988929682
C         3.93804640501723    7.97772525823119    4.68852370431612
H         3.76515744967922    6.97842738140259    4.31258831567685
C         7.86079875220621   13.89091493950818    8.01591602295517
C         7.20494509602550   14.26257461303079   10.30710469876880
H         6.88285308331081   13.87961301367977   11.26385569158817
C         9.71173537732441    7.72269419594541    4.56361727187757
H         9.61104834819286    7.19048492755156    5.49965675895688
C         9.47648769145526    7.85553084342339    8.93728454681088
H        10.42464527169758    7.57337130700479    9.37257430891655
Si        8.31762254265260   14.23710295858414    2.29182853977291
C        10.39476682110800    7.14153855814673    3.50851306667649
H        10.82797077800134    6.15869216974615    3.62765294990052
C        10.00979389239627   16.41110767759156    6.74498371089278
H        10.00762120081337   17.23633350691818    7.45408981354953
H        10.38994705475484   16.77885999898047    5.79367964492701
H        10.68935018191773   15.64855120436643    7.11518880722981
C         9.44410554049195    8.56215432354831    7.75050753531194
H        10.36398988554854    8.84234753403752    7.25546262021288
C         4.56684421938057   15.15835839863191    7.56655986413738
H         5.07114535156548   14.37766320249539    8.13455932245788
H         4.94153765569517   16.13573386700660    7.90072254636303
C         6.76852241838606   14.41292773105072    3.34766441654442
H         5.90443587007910   14.41100493853104    2.67125445510527
H         6.77690351531166   15.41123229864401    3.79730283819448
C         8.75876712324049   15.80428749376119    1.27151758331732
H         7.95441235275567   16.07238895147974    0.59343210816059
H         9.65507067346422   15.66123265306231    0.67553918855876
H         8.93240165907052   16.65676053882369    1.92126676667865
C         9.28983113042201    9.65405400645796    3.20238951972975
H         8.85058009864734   10.64212572287719    3.11160598021662
C         2.86869477545485    8.76276725908435    5.07803282255834
H         1.85975417513132    8.38089893229496    5.00378791848237
C        10.52293075863060    7.81182195891146    2.30338259719937
H        11.05568198407993    7.35095213162437    1.48439360607750
C         9.96749738879324    9.07253555726937    2.14832066771720
H        10.06481982492672    9.59815643495376    1.20939980669674
C         3.10135114791742   10.02978557292185    5.57838784687332
H         2.26726137905773   10.64113092717677    5.90068562305719
C         6.37064263139220    7.59205316498421    4.28689930520673
H         6.89986526500841    8.05876801806648    3.45433087342786
H         6.00076507282374    6.62277310727878    3.95838146141247
H         7.08854602157286    7.43018586098024    5.09280873144651
C         3.03094861846970   15.10766098171806    7.66447086761043
H         2.65921766126039   15.89772366625791    8.31376628114339
H         2.69692274104810   14.15283185912994    8.06467981126391
C         3.86370987364506   15.64914151774692    5.47890677460981
H         3.89628755657553   15.31232362119544    4.44226662604587
H         4.03706523716737   16.73529401002052    5.51875144302543
C         9.86731412612857   13.83859634038625    3.34605514840870
H        10.70966181283582   13.55824443605200    2.71959189272036
H         9.68101959382102   13.01430082606478    4.03403474566928
H        10.17670873119287   14.69798992470400    3.93339956671403
C         8.10593765272455   12.81918225746779    1.01955574229829
H         7.78591725731317   11.90148109018360    1.50345251580189
H         9.03406736369806   12.61244845909417    0.49579658046528
H         7.36099279677125   13.07448219347442    0.27244212826699
C         7.84172953069171   16.11308097364459    8.93942671640289
H         8.01796413482600   17.17363395679158    8.83484236717031
C         7.40518713117574   15.62133055254611   10.15436791234726
H         7.23475296656187   16.29235692852180   10.98365601462264
C         2.56537442958806   15.29297537589011    6.21053397788813
H         2.15993103729872   14.36230994700469    5.81522970972054
H         1.81403724191593   16.07227106882288    6.10543489790615
C         3.57729287108324   12.24447149820359    2.66212577599656
H         3.20353301169056   12.72154163380056    3.56956453769252
H         3.61994309147097   12.98478547655515    1.84810515899633
C         5.13792770333415   10.77214331093775    1.95547786261340
H         5.44713410185220   11.25389431547184    1.01659454843704
H         5.94537589435314   10.13956101696567    2.32392316033667
C         2.75345296175732   11.02224500433943    2.23153055000079
H         2.20523811159519   10.61860555632632    3.08007037930791
H         2.04626374476384   11.27956536835890    1.44532680907821
C         3.81626715897427   10.01712832545484    1.76036645378940
H         3.67936011063716    9.72353433318117    0.72154701984844
H         3.79614897116110    9.12560092229936    2.38425828942599

