111
CSD_code = UJAYEJ | q = 0 | S = 0 | Stoichiometry = C42H52Cl2N2O10P2Pt | MND = 4
Pt       -2.20089969975472    8.62935311274389   -9.67551064464549
Cl       -1.84479345440474    6.96608484723577   -8.11226772505096
Cl       -2.82547467345994   10.15631699158122   -8.06649597447234
P        -1.29528646776914    7.06591177772752  -11.04744321997275
P        -2.82045117662955   10.25349566876968  -11.13543447913754
O        -0.78782510028011    7.53731693646799  -12.52844217613951
O        -3.09437051689873    9.76865354161037  -12.66904405632966
O         1.04629855752688    6.29402977785112  -14.93969797732133
O         2.35123442062381    6.91537416197911  -13.22891133867628
O         0.55919634205748   10.91925051968528  -15.41602853252972
O        -1.17555577778288    9.98532222087382  -16.56929789509998
O        -4.51646953379752   10.86832985166283  -15.44799924121375
O        -6.02890343329573   10.38562295612785  -13.86832210084860
O        -3.99756067468924    6.23757142212472  -15.54978288837456
O        -2.13680522325698    7.11607246717571  -16.53941230864366
N        -0.09263162061486    8.77416945843878  -15.09111028577326
H        -0.68712900760458    8.02741011468494  -15.42955409946433
N        -3.37938721937387    8.39702371971829  -15.25932933720887
H        -2.76200525424738    9.13146004555764  -15.58334111478327
C         0.12387536428850    8.61663613070196  -12.64037511199082
H         0.88595478860679    8.56717495573339  -11.85459583636568
H        -0.41297063919529    9.56955815062862  -12.57014859566658
C         0.81402754318043    8.51617396758489  -14.01305891065187
H         1.61220648598254    9.26755272664191  -14.05152163044163
C         1.40506890449282    7.11567218526903  -14.13982539038439
C         2.96248399820881    5.62920440356334  -13.22362718180557
H         3.60419639441464    5.60385449169620  -12.34731744486995
H         3.54668884850768    5.48813797911797  -14.13506223658408
H         2.20210967848486    4.84893826511512  -13.16319433853247
C        -0.17010639523977    9.99345973880223  -15.68074155900097
C        -1.38248384858130   11.08908439810160  -17.48874167600793
C        -2.57836602934558   10.64226145123103  -18.32900347673700
H        -3.45863695419744   10.55822319281589  -17.69763214826392
H        -2.37534923945001    9.67411267246449  -18.77915604519019
H        -2.77176236729303   11.36723090437841  -19.11387791575254
C        -0.13846159607803   11.26954554804010  -18.35734949776454
H         0.70840180540822   11.56276483389393  -17.74248299175582
H        -0.31723942267742   12.04045554289678  -19.10148892624519
H         0.10189501840873   10.33744645148645  -18.86479433541395
C        -1.71781559500274   12.36780314079952  -16.72581573188029
H        -0.87974411410399   12.65563274834264  -16.09794978636003
H        -2.59808042420577   12.20551088887703  -16.10847908639721
H        -1.92593396588622   13.16804299200828  -17.43043124283439
C        -3.97651345449156    8.67852826491305  -12.88283379112170
H        -4.85395074328508    8.75597021639781  -12.23136941493779
H        -3.45732487008918    7.73206421498304  -12.68950933753991
C        -4.43888691954381    8.71630763788868  -14.34988509811718
H        -5.23188574849137    7.96838708927731  -14.47613847055074
C        -4.98380179676507   10.11136607084366  -14.64059644734087
C        -6.60901178896381   11.67656679238353  -14.02643388142087
H        -7.35976118190979   11.76720964836544  -13.24640458533325
H        -7.06484828979199   11.76431738110803  -15.01454194976685
H        -5.84643443272572   12.44899272994235  -13.91556343249319
C        -3.23824561241554    7.14942364150225  -15.77500910350657
C        -1.82606802244923    5.96883910340714  -17.37234516802194
C        -2.95863858878221    5.74506580325675  -18.37331892371351
H        -3.87127284349805    5.47223512975349  -17.84994932676243
H        -2.69269679501875    4.94513452356508  -19.05850536357931
H        -3.13892241916009    6.65376831895093  -18.94418341894212
C        -1.59165392876649    4.72975916002780  -16.51360925475101
H        -0.77975029896624    4.91946714514621  -15.81607628195707
H        -1.32151825782644    3.89176470686945  -17.15030561524366
H        -2.49532780422160    4.48545136794296  -15.96278634348143
C        -0.53595847374679    6.37568211758751  -18.08383486526506
H         0.26336363616136    6.48888253062109  -17.35653891685099
H        -0.67771862357844    7.32202076983753  -18.59900459985848
H        -0.25466087792813    5.61496676867311  -18.80583778035412
C        -2.25109607386274    5.62254352835107  -11.56020645041418
C        -3.35263158476835    5.26455834037722  -10.79064250348557
H        -3.59733077538064    5.85430962046887   -9.91623457445498
C        -4.10904516173483    4.16112673919235  -11.13995394971531
H        -4.96283609987425    3.88102531754821  -10.54181299504590
C        -3.76744751424623    3.41542471015653  -12.25678136745085
H        -4.35558736849599    2.55175101749710  -12.52903173438347
C        -2.67596044112160    3.77731744950959  -13.02994687466184
H        -2.41365666485484    3.19384719193260  -13.89933714828494
C        -1.91782677309901    4.88293747598367  -12.69056454440231
H        -1.07964219009119    5.18275051090828  -13.30102566806548
C         0.26499228747669    6.45406573793641  -10.32819321470733
C         1.01528334935526    7.36550762495972   -9.59215355804316
H         0.61337760156329    8.36012932456783   -9.40861588990565
C         2.23242298702430    6.98898779560514   -9.05687232458143
H         2.81155684168084    7.69517554030874   -8.48094037606313
C         2.69783952056087    5.69714024462210   -9.24679823372576
H         3.64194160358897    5.39651050465313   -8.81664835253471
C         1.94684821267393    4.78595305409968   -9.97044915018092
H         2.30407312790957    3.77477596466905  -10.10269605750230
C         0.73195435256752    5.16238301529655  -10.51834610984756
H         0.13779425895526    4.45026634199951  -11.07374444024929
C        -1.75027161590031   11.66871955374607  -11.47204150985450
C        -1.12938332100080   12.26664345285793  -10.37894418747750
H        -1.31903581949280   11.87689617039340   -9.38783978662245
C        -0.28955753669180   13.34780865984270  -10.57200497539145
H         0.18899014844571   13.81562924545682   -9.72468145707312
C        -0.05992694019575   13.82553505679440  -11.85303643593881
H         0.60044550549856   14.66649505135971  -12.00455114449981
C        -0.67291704079859   13.22562624324158  -12.94120575041464
H        -0.48610741551440   13.59484517450073  -13.93755121860150
C        -1.51967805496301   12.14724927248952  -12.75746899963199
H        -1.99753065864569   11.67463896972034  -13.60159773275062
C        -4.44594558203526   10.95446017650296  -10.69925318341313
C        -5.36194691669957   10.11832520187138  -10.07142287580164
H        -5.05521947229331    9.11658796690011   -9.78191505989453
C        -6.63083545667977   10.58051415833064   -9.77628844965238
H        -7.34087055286742    9.93411286093312   -9.28258611233277
C        -6.98299525654429   11.88079865290752  -10.10192170117741
H        -7.96956742437103   12.24809736770630   -9.85992379040090
C        -6.06944203486276   12.71590629160090  -10.72418095139467
H        -6.34423610389150   13.73247238898901  -10.96620843009742
C        -4.80104375524134   12.25386395381767  -11.03062050540956
H        -4.08089878007727   12.90136859378826  -11.51168236092941

