42
CSD_code = UJEBAM | q = 0 | S = 0 | Stoichiometry = C12H19Cl2O5PSi2W | MND = 6
W         8.18523661955440    5.03902827700093    3.39846283766814
P         7.14008010142099    3.00343505733743    4.21201467109285
Si        5.67698528036789    1.55989472765101    1.94651825103089
Si        4.38973547418703    1.64091926164243    5.00590519999957
O         6.17197875243789    6.56036142946530    5.26462480780590
O        10.25894502936159    4.71548952660344    5.73639988979398
O         9.49116733332162    7.74770873459904    2.53413476365647
O        10.28764979737872    3.55921749111383    1.59470882011298
O         5.93751994380278    5.45952089985798    1.25169524703837
C         6.91823070322117    6.01285658713285    4.59607161322780
C         9.51502092186145    4.83092844050006    4.88043421654397
C         9.01754557633189    6.75636354247731    2.84344198244636
C         9.48592699865720    4.07154866922359    2.22352056586210
C         6.79448000068657    5.27521029541141    1.98684823578446
C         5.49998620520431    2.46592970961884    3.65122459971692
H         5.01568387228904    3.42109345264628    3.42038264362240
C         7.22523720013279    2.05349896102038    0.95237741354968
H         8.14135419494055    1.72019466399404    1.42912349389665
H         7.29763760705355    3.12689876142830    0.80202859756452
H         7.19078125989704    1.59406632302042   -0.03164832293833
C         4.15609650098568    2.07908797112157    0.92280917913651
H         4.16548422904386    3.14445672888518    0.71258842724604
H         3.22248154077059    1.85033689011729    1.42318321682585
H         4.15229027068460    1.56091145662270   -0.03000554852156
C         5.76139182909337   -0.33028942451808    2.18427767927268
H         6.65605656516572   -0.63128190035421    2.71959608296624
H         5.78728672016046   -0.81373166531685    1.21293417384871
H         4.90502690041474   -0.72352558224497    2.71969411021901
C         2.80604600056388    0.99369212962665    4.16436944490153
H         2.23540902710860    1.80246065115039    3.71987294666391
H         2.17209671860945    0.52445348548391    4.90915527274606
H         2.99860916035190    0.25992935424033    3.39119143916068
C         5.29064144056851    0.20026860246673    5.86474712005500
H         6.14515171856474    0.54026613074355    6.44054055094361
H         5.64624234770788   -0.53762188001142    5.15322934455790
H         4.61582980095566   -0.30404398732297    6.54972463712743
C         3.80299681847850    2.97172127891713    6.24863014830603
H         4.00578329760571    3.97931036664775    5.89593925203578
H         4.28663928148571    2.86544091306405    7.21435675922981
H         2.73211084318032    2.89386947087293    6.41149031201322
Cl        6.96238226414185    3.27490764163181    6.18375757135622
Cl        8.21196385226368    1.33641655643253    4.21414835243038

