51
CSD_code = UJECUJ | q = 0 | S = 0 | Stoichiometry = C22H18CdN8S2 | MND = 6
Cd        1.78588324708676    6.51987388431650    7.23670181505233
S        -0.46300346465982    7.75640467814888    7.37692089757417
S         3.96807642120541    7.87664823317847    7.25258485195442
C         3.81182350675001    4.08000401797199    7.06572440620320
H         3.19189850306127    3.66775092544480    7.85402166093592
C         5.19696013485317    3.86431335812190    7.06112507579783
H         5.65780848019037    3.30324032971436    7.85873654412137
C         5.93198967849423    4.38508343593122    6.03200854612390
H         7.00349076958629    4.25077407879171    5.98126012766740
C         5.28301338746344    5.10339962729655    5.00687661043464
C         5.98441192615392    5.61938547225012    3.89993024266635
H         7.05390341265657    5.47725338683367    3.84823017157298
C         5.30948193565079    6.27827089407039    2.90815276903476
H         5.84007325367068    6.66577140687163    2.05115876375936
C         3.92951959689644    6.46096293373992    2.99727181939683
H         3.41987348128084    6.99084680405789    2.20531988781282
C         3.19255801092810    6.01681815605625    4.08488642422662
C         3.87594184031537    5.29625167601110    5.11624254725283
C         1.77713930462739    6.29510586978236    4.09216365641356
H         1.32646636230425    6.54565994772143    3.12810537326477
C        -1.00212250685355    6.93454888468552    5.97266050076829
C        -0.08572150995594    3.95099848074045    7.12267325274869
H         0.56665351481021    3.65795564765980    6.30772689149655
C        -1.45516383049955    3.65420093520180    7.08193383912240
H        -1.87225924764229    3.15027929084239    6.22431110167199
C        -2.23187094510562    4.02444554769239    8.14505106281712
H        -3.29387034461044    3.82303078230983    8.16349406879227
C        -1.63901667485400    4.67281644579337    9.24784392127220
C        -2.38296291073311    5.03350332877117   10.38798276512841
H        -3.44255874432531    4.82450335082870   10.40643436885268
C        -1.76046990111509    5.62862254593631   11.45177565017996
H        -2.32346214753761    5.89736967754768   12.33323849992466
C        -0.39304138370754    5.89984889509068   11.40549249488164
H         0.07446618355911    6.37731979768466   12.25471846197914
C         0.38200034790417    5.61030885775523   10.29249753941863
C        -0.24490773646927    4.95793721753478    9.18280387155906
C         1.77784568104380    5.97115477528593   10.33736107912743
H         2.20029783709627    6.15477122720745   11.32887853134773
C         4.53728468624558    6.95167120087248    8.57896730522351
N         3.17959162163270    4.77508610624716    6.15056211767281
N         1.03655337624433    6.29720718280933    5.14590395274361
N        -0.27738751320712    6.47450694447079    4.98840767050681
N        -2.35131290358374    6.79946983555420    5.84428661268719
H        -2.69873249219845    6.54254364379860    4.93429212545004
H        -2.91906409941511    7.41224433466353    6.40564762451474
N         0.49319376910189    4.58611730137722    8.11356129874485
N         2.53033547635591    6.11673788954957    9.30219488152062
N         3.82901363576190    6.35501651017326    9.49948177921669
N         5.89058178528382    6.88287628986678    8.71829144757928
H         6.23987976605959    6.55783254491589    9.60549910713024
H         6.42761742223087    7.58215541079872    8.23290398463172

