45
CSD_code = UJECER | q = 1 | S = 0 | Stoichiometry = C15H21ClHgN7(1+) | MND = 5
Hg        9.28682325408236    0.29434767772817   20.88510808652675
Cl       10.32016506948241    0.99640030858687   22.69692744106846
N         7.96964770758596   -0.60670098401791   18.59322505031573
N         7.91434429600537   -1.51734750112373   21.24180582881622
N         6.76812380074555   -3.32409892907167   20.74667477744055
N         7.92953274121890    1.87183695838067   19.90128835331129
N         6.27667018420832    2.64694819776867   18.68015694409489
N        10.69714789700967   -0.38164918138887   19.19834765317794
N        11.33203905706068   -0.84278584936238   17.14708294588283
C         7.75095201738719   -2.02769875156196   18.81223787351934
H         8.67081127386278   -2.55804730019654   18.54370965977720
H         6.93437701560549   -2.42333063768494   18.18632515410176
C         7.46911322350020   -2.28183112819219   20.25898472442079
C         7.48307431291728   -2.08594778432299   22.40359218913262
H         7.71480390056822   -1.65093583464527   23.35504467100735
C         6.77174356812768   -3.20831000583963   22.10865463751650
H         6.28099532812067   -3.91769703251749   22.74165111300768
C         6.15041570012919   -4.38292597034558   19.99429672048324
H         6.89498651105689   -4.92019725084041   19.40513797552498
H         5.38640759438099   -3.98614040376931   19.32328881934131
H         5.67970270861760   -5.08005975219342   20.68368713437832
C         6.73897055427673    0.16602442249429   18.53692565378051
H         6.01081049949135   -0.30769753867090   19.20393260125290
H         6.30816315157148    0.18762993008477   17.52242276358501
C         6.98797648207685    1.55655888060677   19.02787121380653
C         7.82256387610616    3.21318800584155   20.12208487506053
H         8.48155277697435    3.71987507201610   20.79820171620188
C         6.79928660666690    3.70437692956502   19.37096066002524
H         6.40902636154777    4.69595085276401   19.27470731946634
C         5.15548608368574    2.70182313251185   17.78097068956471
H         4.33667387135716    2.08227554431889   18.14993640729971
H         5.44048187958398    2.35620122362372   16.78565070385643
H         4.81032104548355    3.73056065058575   17.70659460032530
C         8.88290687514177   -0.32283294929363   17.49750430290050
H         8.75997573272365    0.72892036198716   17.21795013696535
H         8.66974128628510   -0.93899076718161   16.60874498939323
C        10.29486398312061   -0.52611793375270   17.94694256946234
C        12.04045456248759   -0.61555962057897   19.20530501422051
H        12.60997770592955   -0.56052076032600   20.11128686154315
C        12.44558967348040   -0.90130560370830   17.93770304941772
H        13.41232885049618   -1.13459598461862   17.54300512818995
C        11.29971911700935   -1.05206227251806   15.72444961258891
H        10.63683085413086   -1.88114449832974   15.47019857779212
H        12.30291425032706   -1.29000130743310   15.37809821117861
H        10.95500675839368   -0.15288461538931   15.21162458928455

