69
CSD_code = UJEHAT | q = 0 | S = 0 | Stoichiometry = C30H36N2Ru | MND = 8
Ru        3.29062490310847    2.12089594402161   10.59802319175925
N         2.64030236348928    2.77919330895803    8.60730518813688
N         3.69350936419078    0.65809174281785   12.18433470320303
C         4.23648158890124    0.79439441299585    9.38860208841790
C         4.10339882670754    1.04396734240692    8.05926033061752
H         4.57669330127372    0.44748153884920    7.28596512717559
C         3.22559500200577    2.08737618839133    7.68915193857912
H         3.03733662104485    2.26313812705728    6.63291225060483
C         1.64355469145633    3.76449409105426    8.23841014006625
H         2.00559036407641    4.75459434938505    8.52996995773143
H         0.74793218985663    3.55581096809623    8.83169153949456
C         1.21893986458523    3.82390975790249    6.77099159200536
H         0.41584808727808    4.55155289193983    6.67927261936321
H         0.84186113623262    2.85977371520198    6.43807234765701
H         2.03457800277610    4.13994545316821    6.12368169560079
C         5.05629680743662   -0.35093229147486    9.78545094815886
C         6.44881140402707   -0.26244002807294    9.82637487642415
H         6.92588124751734    0.66929767623354    9.55243971445587
C         7.21559018789788   -1.34737172957598   10.21056842673539
H         8.29271766760336   -1.25950744099394   10.24153879702480
C         6.60871191342207   -2.54489876045381   10.54933081893407
H         7.20801636704849   -3.39182991913843   10.85022023249363
C         5.22811127870306   -2.65216235732271   10.49088190800594
H         4.75003937352118   -3.58969485740591   10.73957834674085
C         4.45827308184620   -1.56897402442778   10.11299397097274
H         3.38140015913385   -1.65138516477374   10.06413272935510
C         1.59431471262738    1.00807246179185   10.58186192219577
C         1.51708044318184    0.07760093039103   11.56950267069604
H         0.65979138184173   -0.57115337491657   11.71753725785922
C         2.66337900098353   -0.09401710118823   12.37748069183212
H         2.66299191646824   -0.88265476891683   13.12581672753720
C         4.91589450896732    0.40447672507186   12.92048409770362
H         5.12292281209144    1.26568851490224   13.56227347596920
H         5.72651192922676    0.33964683873173   12.18815207257081
C         4.97237659881705   -0.85774643726141   13.78117002897802
H         5.97437886308294   -0.94143222075951   14.19571688153445
H         4.77904133978540   -1.74390675124366   13.18119531504599
H         4.26803943482444   -0.81731844844509   14.60969077020100
C         0.45660022026827    1.12501468920145    9.66909176288345
C         0.48699597730733    0.50768616194140    8.41751286144344
H         1.36301542739182   -0.06037905337770    8.13693057881027
C        -0.58433752687607    0.61770131794804    7.55214126609170
H        -0.54670153024229    0.13175802394559    6.58682265939238
C        -1.70763354710012    1.34373823281257    7.91555622027293
H        -2.54183284991479    1.43246849879481    7.23495574084658
C        -1.75741217639601    1.94718389991068    9.16074087646950
H        -2.63512597410557    2.50482999295141    9.45658580620701
C        -0.68947239895737    1.83449765504929   10.03214074907312
H        -0.73470343312653    2.29826468518622   11.00870142373005
C         4.79684363799234    3.65915302699076   10.13209157187478
H         5.34412360309996    3.37829972421389    9.22812120479201
C         5.16429662374674    3.04578108532129   11.32193387122908
H         5.97785111568243    2.32547648060647   11.26802756131036
C         5.06055057805672    3.77599601801104   12.64847943813226
H         5.25685232332334    4.83816357789062   12.47735844634558
H         5.84817433337334    3.41946048727031   13.31708112175432
C         3.69256860480147    3.60451023367935   13.33871907984858
H         3.76260760705715    2.84748720982825   14.12292241104180
H         3.40682636390772    4.54022964174599   13.83683226312159
C         2.58989069217572    3.20556743134318   12.38264483630181
H         1.78405010297247    2.64391411964043   12.86295933875117
C         2.26724145455889    3.96421180576973   11.26588358279962
H         1.22707627251074    3.94574137924341   10.94762683460728
C         2.99392570852260    5.26087686544720   10.95913618942158
H         3.27118180307310    5.73632096714997   11.90414997463474
H         2.30739168821053    5.94722974848650   10.45701338140531
C         4.24966061939980    5.06901964886386   10.08543841152019
H         4.02318005802853    5.31904567393769    9.04660728725146
H         5.03639588422361    5.76427346718904   10.40635585679976

