31
CSD_code = UJEJUP | q = 0 | S = 0 | Stoichiometry = C11H13MnN2O3S | MND = 6
Mn        1.96870540764972    0.63880105963703   11.18789963647627
S        -0.38547645423015    0.93568790304636   10.70373808395089
N         1.20556340303722   -0.92798103843599   12.51099015212432
H         0.20302921585537   -0.70714080283214   12.53869319508432
H         1.53556848425840   -0.94701414842416   13.47594012032088
N         1.78783136313648   -1.06578211991156    9.81291979670472
H         1.32486244119428   -0.74175932776842    8.96187560521989
H         2.69288645598330   -1.44818514144193    9.53451182697534
O         2.87243365586105    2.44683939578303    9.06634695244292
O         1.48233361295111    2.77251300054840   13.13721704019922
O         4.76496330752379    0.15755857571894   11.93958652438457
C         2.49841958655362    1.75395445780411    9.90651538254277
C         1.71162863847789    1.94246836249508   12.37648215106742
C         3.65992857684184    0.31445093014457   11.64752717688903
C         1.37489956430060   -2.24626598051579   11.89669391719659
H         0.76162725697446   -3.01388259756805   12.38814664134693
H         2.42736482649506   -2.53881681155409   11.97383704980969
C         0.97546474520144   -2.12163617544999   10.42833741984288
H         1.09305087549579   -3.08461501450838    9.91521049057340
H        -0.07513309532562   -1.81889196016544   10.37220649683752
C        -1.03557623135666    2.55775482448143   10.69211674393453
C        -0.24321855331192    3.68650856711673   10.52923722088200
H         0.82890852316787    3.58066875106117   10.42332004577724
C        -0.82658701434132    4.93872605896465   10.50963379765394
H        -0.20122357662301    5.81099350505868   10.38623013419366
C        -2.19793751168736    5.07771745550993   10.64449119145067
H        -2.64831454968286    6.05917783701675   10.62839478228839
C        -2.98839274330716    3.95061199564726   10.80034372779544
H        -4.05949078636229    4.04870970038884   10.90614869667719
C        -2.41462447589269    2.69524956720624   10.82517610993228
H        -3.02469494883771    1.81157917094617   10.94663188942049

