31
CSD_code = UJEKAW | q = 0 | S = 0 | Stoichiometry = C11H8F5MnN2O3S | MND = 6
Mn        0.92999369394812    0.59725154675380    3.02137593467946
S         3.29281157464258    0.04296119908592    2.49193597730273
F         5.44447519975397    2.09184575717051    2.35394365299116
F         6.28579822044492    3.43741406503058    0.15927273292685
F         5.08479248974959    3.02031137100425   -2.25455801185839
F         3.02678480847741    1.22692070866324   -2.45268023764227
F         2.18177797504498   -0.11972120736036   -0.24757519511256
O        -1.81734125138121    1.26268697903935    3.81244670584223
O         2.25338215429165    2.89666888934121    4.26626214691533
O         0.79313881952022    2.36824898622769    0.69647398326512
N         1.25286613317711   -0.81230746544767    4.62425503939560
H         0.54657616111142   -0.74467159414337    5.35928789247807
H         2.15280319951526   -0.61418098374138    5.06532988534933
N         0.44071728515458   -1.21980525476268    2.04261496416362
H         1.31586821727065   -1.42948420255689    1.54813996697620
H        -0.29376181638322   -1.21375774586253    1.33369572437341
C        -0.74366488497015    0.97600340257743    3.51183877479949
C         1.69503656603940    1.99244580537817    3.83924788660415
C         0.80341054411177    1.63740018596685    1.58311949103415
C         1.27167292497432   -2.18132403842015    4.08916727421122
H         1.11158348337610   -2.93106709207062    4.87324036383892
H         2.25038265236038   -2.35687664518236    3.63111034892291
C         0.19324783187277   -2.28989561126338    3.01326738918259
H         0.22356400431116   -3.28365453672935    2.54810515597757
H        -0.79660092928058   -2.14218476071594    3.45845071067725
C         3.78507128027880    0.96103593505942    1.10771955099771
C         4.84249535553947    1.87281644533383    1.18066001141282
C         5.27651637535555    2.56623246502916    0.06018387548931
C         4.66478925698522    2.35658287703475   -1.17259211724848
C         3.61616054901171    1.44693820001500   -1.27241968711125
C         3.19825212569221    0.76176631954508   -0.14502019083415

