26
CSD_code = UJELEB | q = 0 | S = 0 | Stoichiometry = C10H9CoF2S4 | MND = 7
Co        3.19168185141316    4.57237028388288   -0.38729858656846
S         2.56734431636932    3.32180084046802    1.22376145643638
S         5.06369083696396    4.92443990664291    0.57572142687237
S         3.77819884323102    2.17700970275030    3.68949611849909
S         6.49423871153705    3.92557635652345    2.98650938582876
F         5.92879969465318    2.84705053703270    5.88867395498576
F         4.96527427475307    4.63691679440195    6.62191733969044
C         3.90825822551706    3.25096095664023    2.28981005577732
C         5.02702342701004    3.96980670105807    1.99935664178874
C         3.77998270292732    3.38704938161609    5.05405058212853
H         3.15088175499362    4.23434372172020    4.78424013808251
H         3.33702707401321    2.85673033610417    5.89826517609671
C         5.15550552036496    3.88349828124642    5.48404745110774
C         5.91595437724175    4.76421283571805    4.49936542080875
H         6.82574763103011    5.10888786161005    4.99295519794424
H         5.30308630969764    5.62132685534261    4.22326997906533
C         1.92487196848069    3.99792622044567   -1.93542134103269
H         1.38241326264601    3.07792396307078   -2.08131094215433
C         1.42421928064604    5.16305794300305   -1.31360656270794
H         0.43248467209369    5.28537437175567   -0.90904989888928
C         2.40619952038293    6.18433130963728   -1.43812054124121
H         2.28312244091665    7.21718329360243   -1.15315359112590
C         3.50748274562342    5.64609712135980   -2.14518976963286
H         4.37723917843921    6.19307777651063   -2.47067642665272
C         3.21895724985804    4.29211709396460   -2.44410247835126
H         3.82211412919982    3.63752955387916   -3.05311018676132

