73
CSD_code = UJELAX | q = 0 | S = 0 | Stoichiometry = C35H30MnNO3P2S | MND = 6
Mn        9.85229666268619    1.87670618454960    9.45730184685278
S         8.83589441867137    3.42540762585569    7.76095390385454
P        10.63447420226230    3.81857506440260   10.33440445860936
P         7.87720290817141    2.50574050949347   10.36482177916853
O         8.83548401185532   -0.78802224854382    8.81100521697669
O        11.35994047222503    0.41868557763470   11.50449477658035
O        11.70840593028823    1.84597076014670    7.18070150705285
N         5.37660727999275    0.65099739838488    3.81834147190057
H         4.44700540548717    1.02499229893222    3.71374365447497
H         5.42154007599543   -0.35534238616706    3.79914716159110
C         9.19124933312371    0.29367271370328    8.99869653590789
C        10.75087116152621    1.00453206659175   10.71397610247270
C        11.02456329652865    1.85257606497477    8.10403936516272
C         9.39742525190490    4.40596791444095   11.56623074166655
H         9.48650231846025    3.73998701960577   12.43668487149039
H         9.59389285501685    5.43513824178563   11.88189527816371
C         8.02132223930222    4.25527430321125   10.92546470110866
H         7.95268624656628    4.88253489288194   10.02939436810144
H         7.21605208541539    4.50544855190251   11.62389688712049
C         7.84390179989311    2.55714519675701    6.59631488776172
C         6.74696746136646    3.22177297121485    6.05853740168138
H         6.54653024714426    4.23993931422099    6.35684016610920
C         5.92307859705710    2.58668706468066    5.15533024362257
H         5.06964919863384    3.10909751879611    4.74593523452076
C         6.17451084250406    1.27177798547967    4.76459978459457
C         7.29366489568340    0.62428421488605    5.28602498051700
H         7.51407287640969   -0.38868433520714    4.98023921361458
C         8.12394861116896    1.26335741803336    6.18238621970054
H         8.99805821319159    0.75180560554838    6.56469281903096
C        10.94387820174835    5.25909214314212    9.26434333406375
C        10.22093684928051    6.44490909884979    9.28586329774056
H         9.40398661426210    6.59135033959731    9.97709973862341
C        10.54372633899318    7.46300784602010    8.40519507783072
H         9.97545555694832    8.38205056856799    8.42319743165773
C        11.57982404248282    7.30766966492377    7.50162064367241
H        11.81946857477936    8.10403007060188    6.81263997881356
C        12.30567122267144    6.12720863319545    7.47898390973741
H        13.11340313950168    5.99977991910264    6.77357706979760
C        11.98918680504262    5.10876038845086    8.35490774699333
H        12.54894435065641    4.18210340038327    8.33956421802510
C        12.20895401552843    3.81917004519364   11.24545776899769
C        13.20386979134686    2.93110163969221   10.84735092165159
H        12.99990079236097    2.22419039401340   10.05036528600193
C        14.43741390257684    2.93992544804584   11.47214432257170
H        15.20256447753770    2.24454831461326   11.16073010535539
C        14.68698626119748    3.83610030850146   12.49793619603805
H        15.64799048319092    3.84111279092401   12.99042687422351
C        13.70313686391489    4.72834885870991   12.89182156027194
H        13.89845919982791    5.43077042040738   13.68911626177697
C        12.47003342026500    4.72770309346843   12.26619935863563
H        11.71477025346435    5.43526689388429   12.57568605815007
C         7.23601477972222    1.71441353427698   11.88919975696246
C         7.90088032797973    0.63875004312915   12.46158321467272
H         8.81354111820125    0.27559287755481   12.00595912837016
C         7.39712291024494    0.03049265056551   13.59873082228205
H         7.92257457913487   -0.80430493069283   14.03841168623741
C         6.22119777832588    0.48971587968470   14.16551022041783
H         5.82632960629495    0.01637351941305   15.05233767648400
C         5.54150954758481    1.55154573375950   13.58754559645056
H         4.61588765955084    1.90152178193895   14.02150894032022
C         6.04139522567024    2.15854883324845   12.45244776387438
H         5.49652655750973    2.97174346864847   11.98981873511838
C         6.33438480836937    2.44149622119307    9.40848098114850
C         5.93697793286020    1.17767709929765    8.97843167363831
H         6.54079469066767    0.31648717040641    9.23442174749841
C         4.78350331598267    1.02444944888191    8.23520761890287
H         4.48844029217228    0.04192950442754    7.89739942981081
C         4.00928009372761    2.13057027983181    7.92650942141521
H         3.10525127329107    2.01449754120128    7.34694719455694
C         4.39537684452844    3.38672289503184    8.36055167866965
H         3.79225130955357    4.25046811753476    8.11962264123462
C         5.55715940765931    3.54900020463776    9.09442643040261
H         5.85363988479173    4.53968233756685    9.40692490146398

