23
CSD_code = UJELOL | q = 0 | S = 0 | Stoichiometry = C9H9CoS4 | MND = 7
Co        7.53665127660299    7.09145507254213   -4.03291533692849
S         8.74468074927205    5.68067105426293   -5.07495976281050
S         6.46471163517899    5.49932464240288   -3.10805915530597
S         9.10433066187563    2.80305041029205   -5.30220478046215
S         6.39626754651687    2.59295300636570   -3.07435158201379
C         8.20484735863277    4.12594684791531   -4.57783357702006
C         7.15544592399177    4.04365768971868   -3.70817399060471
C         8.57941409716313    1.39665860175289   -4.26425550285668
H         8.99749050572181    0.51871756237222   -4.75620656987264
H         9.02502569450055    1.50754566441110   -3.27550094714823
C         7.07292175864803    1.31022593717981   -4.18252225173779
H         6.75674642703745    0.36680762972094   -3.73803095687817
H         6.61524268104404    1.42172472806400   -5.16564945798086
C         8.64792290747666    8.84892647150740   -4.18746611206815
H         9.69779669783508    8.98897728910953   -4.38810668039057
C         8.04800342117239    8.76831837608655   -2.90551759213889
H         8.55972864918053    8.85089600167726   -1.95983564428786
C         6.64276700429190    8.71740671437543   -3.08672427669226
H         5.90531928225893    8.73400528956147   -2.30053810425066
C         6.37301589493217    8.76814795528629   -4.47462772339187
H         5.39699110784823    8.84843476279109   -4.92574648909239
C         7.61600937118647    8.84386662885746   -5.15590953542463
H         7.74896934762746    8.98568166374524   -6.21646397064138

