25
CSD_code = UJEMOM | q = 0 | S = 0 | Stoichiometry = C10H9CoOS4 | MND = 7
Co        5.06824542181184   -0.26136400100526    3.97810005510591
S         3.83630655258131   -1.12452583071957    2.46783889122510
S         5.46070909275218    1.41419842740882    2.72264932237776
S         2.75547462377185   -0.38028648635463   -0.18013660148109
S         4.57212586043865    2.45860767908729    0.10420670440635
O         3.76001659982767    1.28108430093187   -3.05628844449336
C         3.80315811610618    0.01525219436063    1.18488579907700
C         4.53537348253714    1.15964484361544    1.29954030743672
C         3.98728564466127   -0.53638646044873   -1.53914026051542
H         4.85303202339230   -1.06503665713623   -1.14539951799100
H         3.47733514662547   -1.13192859016049   -2.29508516199860
C         4.31801553834380    0.82686432214097   -2.09298796560740
C         5.35757826730635    1.60305726127549   -1.32402501376267
H         5.74857474762531    2.41256252431846   -1.93882319021889
H         6.16374270781398    0.98217207473885   -0.93851996954846
C         4.42703927941031   -0.48712731754818    5.94484107487279
H         3.46323826268339   -0.30645431716975    6.39374519155579
C         5.50696793152050    0.43545556115001    5.89256969202673
H         5.49996453210843    1.43950082515859    6.28483640447782
C         6.62801793677415   -0.23375680611169    5.35435160237602
H         7.62327365833033    0.17153297498669    5.26851056517178
C         6.24583216465493   -1.57405708994434    5.07139419092901
H         6.90472166895182   -2.36368997131341    4.74631136097614
C         4.88986051275629   -1.72895250153737    5.44780589398128
H         4.33221022719807   -2.65116695972405    5.43441906962138

