171
CSD_code = UJEQIL | q = 0 | S = 0 | Stoichiometry = C56H108Br2O2OsP2 | MND = 6
Os        5.98055575372847   10.55523342261625    8.72106542489924
Br        6.13762708644859   11.72067466894020    6.48877228101078
Br        3.82368014990315    9.36371031561997    8.12109425608187
P         7.07341521660372    8.71187129847940    7.64944930928471
P         4.63326343191727   12.39059198760432    9.51921887785979
C         7.59735811938601   11.41641811770976    9.11684405206672
O         8.59087137862565   11.96168610507784    9.30671110262181
C         5.77075395600085    9.67428135990696   10.36394102402845
O         5.54567823240009    9.14561994578776   11.35968490916899
C         6.33403581544128    8.16227283327119    6.05684822121783
H         5.36764101189862    7.71155888431650    6.30981871642786
H         6.12838081113423    9.05837627449564    5.46139572103578
C         7.16978889495433    7.18453063153858    5.23475217343682
H         8.09689711964641    7.66160120117641    4.91991459434623
H         7.42650284958413    6.29848993694610    5.82068941547585
C         6.38567096053196    6.75270697371389    3.99717985504066
H         6.04153926569261    7.64191845947345    3.46827124192012
H         5.49655512602020    6.20122430401760    4.31304826613092
C         7.19312538250082    5.87008753550237    3.04437190421944
H         6.53940750972283    5.56904759791102    2.22391578714908
H         7.49201672718620    4.95873484977283    3.56959758105055
C         8.45327791660527    6.52256429746658    2.46505215742971
H         9.20636025294108    6.61767763171717    3.25157383197986
H         8.86456916079529    5.84609629332097    1.71143832090598
C         8.23451117732100    7.89748013991636    1.83085156604376
H         7.88172488213795    8.59496315542287    2.58992184390846
H         9.19922656938516    8.26696147079202    1.47203467112758
C         7.25343577441986    7.87311430314497    0.66147652063208
H         6.27085304547111    7.55237623589122    1.00679474177018
H         7.59708453277885    7.13817342377145   -0.07164402701935
C         7.12158066643569    9.22730998965514   -0.03924005160472
H         8.09339359285635    9.50437578538662   -0.45678287913664
H         6.42562667228096    9.11482343412818   -0.87462480358338
C         6.63630962386508   10.37192238788830    0.85380317501832
H         6.59709030239336   11.28117882609716    0.24852664563949
H         7.35878042096075   10.55161273944856    1.65170654104570
C         5.25872879639686   10.13698972831903    1.46880115349105
H         4.53014717340159    9.96111118713338    0.67341560472426
H         5.27895641224342    9.24616405653670    2.09849905913704
C         4.81231185485207   11.32206126733547    2.32133793070144
H         4.73184523642264   12.21152785630381    1.69223303209361
H         5.56616072400370   11.52572217540402    3.08540057232704
C         3.47520046915431   11.06793640731899    3.01269091214875
H         2.70719214885329   10.85060092546428    2.26593097475047
H         3.56533268569653   10.19227352723035    3.65933578126320
C         3.05278535859874   12.26478322455480    3.86009450874629
H         2.88060507376435   13.12734576451977    3.21170338630115
H         3.87697527978390   12.50685465377994    4.53096649592702
C         1.79095671556743   11.97288665015697    4.66824844680505
H         1.98844110289783   11.15329380228844    5.36053428081461
H         1.00306482666949   11.63561976305167    3.98948750722838
C         1.26521785098406   13.18774498373113    5.43638019816609
H         0.38976680363891   12.88043024286486    6.01449761975860
H         0.93772747770621   13.94486882310990    4.71928983747067
C         2.28221789951120   13.83454671801913    6.37836673535692
H         3.12174508103999   14.21766744709422    5.79650759129215
H         1.80734234124204   14.68733546763918    6.87328145700609
C         2.80888821906857   12.86743594837874    7.43339372426200
H         3.26311872245633   12.01745448694673    6.92692433152338
H         1.97891274392043   12.49297502668725    8.03691735421429
C         3.85254567549288   13.54213037010903    8.32073623184393
H         3.41469291471698   14.36701651970516    8.89330845727267
H         4.65568103862899   13.95020275007950    7.69741836867505
C         7.03390904317856    7.16803335229581    8.65890287095700
H         5.99561382164662    7.03655517116661    8.98558815434673
H         7.28887790899751    6.31615311717766    8.02320685214596
C         7.96310806562193    7.23199781068710    9.86983172753110
H         8.99744671816918    7.08386178808841    9.55138451466117
H         7.89897339898486    8.22816085646493   10.32104446075076
C         7.60898890630889    6.17339075256913   10.91260838043063
H         6.57311540458449    6.30919940001970   11.22673893842577
H         7.68407602912144    5.18759662244953   10.44670154614339
C         8.52888518210404    6.21845321193831   12.13512245074314
H         8.41157479657200    5.29184323359769   12.70135328986426
H         9.56491224099578    6.26373458114621   11.78972548510749
C         8.25870584226838    7.39912698039700   13.07034142849373
H         8.17343591157954    8.31794091970500   12.48863180032947
H         9.11297045400305    7.52092223647677   13.74070437592509
C         6.99784252362767    7.21877380070945   13.91275084712934
H         6.15071301214897    6.98658370809849   13.26543154934800
H         7.13535588263234    6.37461266140809   14.59286677395490
C         6.66577107702397    8.47387640100917   14.71590279223720
H         7.52892853497922    8.76122672877431   15.32181822926333
H         6.46279520562882    9.29409694168709   14.02303817912582
C         5.45259793336340    8.27069750406295   15.62069821632763
H         4.63251509153616    7.86952040064083   15.02306260962177
H         5.69301897405343    7.53459884606614   16.39143001150115
C         5.01678928925375    9.57604563569413   16.28209637808776
H         5.87850960338201   10.01846983087962   16.78992174299709
H         4.70136325694281   10.28157203353312   15.51074419156136
C         3.89774188661443    9.39966485416054   17.31008309975564
H         4.27007254029207    8.78084349599846   18.13067462326083
H         3.65603751763656   10.37857807318323   17.72987101324032
C         2.61933155926430    8.74899124720903   16.77346176473187
H         1.87403896721640    8.75554530560755   17.57316533777431
H         2.82704006277576    7.70402460009141   16.53412924816837
C         2.02253943128450    9.41800785730372   15.53494709915113
H         2.75425621313949    9.39496300233128   14.72798248666327
H         1.16184138483552    8.82804494018530   15.20869226660217
C         1.56203865032054   10.85358685186571   15.77916917875126
H         2.40208586454683   11.46240011198541   16.11817974735665
H         0.81404259950085   10.84927383405871   16.57561837074347
C         0.95760779598279   11.49748964727726   14.52953857847075
H         0.23331506152818   10.81190289016914   14.08379910875317
H         0.41913439326697   12.40367527519014   14.81816030474701
C         2.01272264389518   11.86525972365370   13.48792132870300
H         2.58868537828731   10.97491167431354   13.23514081058238
H         2.69911559418389   12.59908619490648   13.92023096549299
C         1.38493717939574   12.44397353110494   12.22132388821974
H         0.77718621104629   11.67777099815199   11.73534006409477
H         0.71979216122036   13.26440531779613   12.50228075314665
C         2.41734488315765   12.98001915156783   11.22610212891867
H         3.05952918461280   13.69748757946205   11.74218445546244
H         1.88900882988609   13.51063103959009   10.43199277203951
C         3.25576442650469   11.85842516242509   10.61980527810076
H         2.61590987838743   11.18694392597151   10.03852741401901
H         3.71842853149583   11.26128958285893   11.41144261748755
C         8.87715525477009    8.87607547784352    7.31170670368201
H         9.35789888518769    9.11488426679883    8.26698982478418
H         9.22319573300843    7.88785328870858    6.99457425989834
C         9.24883115773075    9.94256695752539    6.28335245691539
H         8.90220365024830   10.91709373355758    6.63144244999572
H         8.75285992820085    9.74654915076010    5.33095996945258
C        10.76109198357233   10.02050776380519    6.07320800344671
H        10.98351173034099   10.89976766162394    5.46507449142742
H        11.23582798012455   10.15949196729895    7.04575448986252
C        11.34191702889320    8.78775516315142    5.38261892393262
H        10.85048576462795    8.66109210236553    4.41399215958718
H        11.13448519463061    7.89279218332387    5.97157232205822
C        12.85135075376029    8.88437293064816    5.14543809258017
H        13.18658246248542    7.95180636601337    4.68419957252109
H        13.04526293718295    9.69108725461000    4.43435228661353
C        13.68231424241929    9.14604669009302    6.40410009136594
H        13.42681711491625   10.12909789569877    6.79899273828623
H        14.73679186906636    9.17866923650670    6.11851881386823
C        13.50085280174494    8.08619971562262    7.48928994801505
H        12.44565025923371    7.99084798882969    7.74326819281090
H        13.83048399629291    7.12133316011497    7.09549057958063
C        14.29169308750009    8.39324063104970    8.76311385044602
H        14.27550412586051    7.51174933671363    9.40933262011321
H        15.33307886469173    8.58248936232660    8.49169016087811
C        13.76733590856863    9.59052684337924    9.56011825226019
H        13.69405501749718   10.46318043283520    8.90883666660430
H        14.49445221026343    9.83180458104381   10.33936539536870
C        12.41313442834228    9.34389298293871   10.22337570230042
H        11.67910964513176    9.04266243241126    9.47296281242853
H        12.50424612667807    8.52512902945103   10.94158089332097
C        11.90195811081546   10.59444257157188   10.93536666985439
H        12.64945252454146   10.93116089643562   11.65741211935888
H        11.76972918347362   11.39377758445261   10.20178506340367
C        10.57772641152768   10.35759662114242   11.65720251896234
H        10.71426430196432    9.60406033711238   12.43647222124442
H         9.84552661842983    9.96361634091643   10.94591623352851
C        10.03013706762024   11.64305163114357   12.27390972486492
H         9.88180884325339   12.37285775782208   11.47694775756078
H        10.76580067372946   12.05676902121115   12.96731146029397
C         8.71534880222008   11.40614878438405   13.01341927365410
H         8.03380693764112   10.85803489012662   12.35857558269494
H         8.90862104589687   10.76827256101502   13.87864708884774
C         8.04537847670214   12.69640119449789   13.49414544544964
H         8.79350645579990   13.30686328700478   14.00417716303674
H         7.27279234143519   12.44362207139863   14.22473987422293
C         7.40779219014764   13.52537314756514   12.37489843527645
H         7.15305861656822   14.51478174785515   12.76196856382405
H         8.13044965704914   13.66524308417855   11.56950414729299
C         6.14886784923250   12.86680804540289   11.81427771721591
H         5.37669563732590   12.84298136276371   12.58609501484111
H         6.38704478337067   11.82872725357369   11.55760445248670
C         5.61291165188089   13.56024686929850   10.56243409859765
H         6.44370001337957   13.90562263778350    9.93652086644662
H         5.00804870726633   14.43518672740267   10.81180875928206

