135
CSD_code = UJEQAD | q = 0 | S = 0 | Stoichiometry = C44H84Br2O2OsP2 | MND = 6
Os        4.40346312673859    6.78470401758660    2.51516992456147
Br        6.16663976443298    6.86155204855069    4.30310325642014
Br        2.79689581822857    8.21870300108980    3.84870090828217
P         3.49257576637132    4.91422450269153    3.71555143293002
P         5.45379265094422    8.74859115992596    1.59467941967102
C         5.45495426736875    5.64321714322961    1.46732101471077
O         6.03461868088701    4.90646979692048    0.79916324486071
C         2.97560792784788    6.85369857929250    1.29672930466896
O         2.05814497985227    6.93435395679088    0.61010763382737
C         2.09830383954330    4.10651212105297    2.81209071463552
H         1.64634475300459    3.35143511322214    3.45944211482156
H         1.34472979546947    4.88350815105133    2.63854124886799
C         2.53798387886535    3.49739231426197    1.48428984693688
H         3.14057561801907    4.23170559902110    0.93565102117555
H         3.17508532601107    2.63157161647673    1.66933693101508
C         1.36714786521453    3.08097019989813    0.59209074500619
H         1.77932258310127    2.69740896250533   -0.34453269783288
H         0.77097108222579    3.96439266563624    0.35122432232045
C         0.44957869092770    2.01563062398602    1.19792898008342
H        -0.27207825744787    1.71859736676380    0.43333276938396
H        -0.11813891498641    2.44126274856806    2.02824609198006
C         1.20530714706312    0.77906040671777    1.68250243713443
H         1.92278625454512    0.46844520927857    0.91883478808228
H         1.75758998241703    1.03649955917534    2.58507312465547
C         0.27120412358066   -0.38802385319871    1.99107581291216
H        -0.24097568910113   -0.68068118585767    1.07092929662388
H        -0.49409997235635   -0.06014919705156    2.69938549821030
C         0.98842689966202   -1.61392761214454    2.56508135288593
H         1.79794342786105   -1.90898716697077    1.89421023351324
H         0.26968970249863   -2.43569321725341    2.58712657224392
C         1.54365143713272   -1.40032773661996    3.98094456485324
H         1.40529518776455   -2.31068354197835    4.56793155028611
H         0.96379711223842   -0.61508887867220    4.47248445663104
C         3.02731662502447   -1.02768867694255    4.01860322592620
H         3.62905662611886   -1.89777536253946    3.74703499593843
H         3.22798540231671   -0.25319031535412    3.28037870145142
C         3.43931400583359   -0.53326333700889    5.40418032964237
H         2.75550436121986    0.25721978703920    5.72148567028323
H         3.33080466273869   -1.35274366796400    6.11870301335892
C         4.87729361275104   -0.01602888616771    5.47919139340717
H         5.56273371101958   -0.83031309673236    5.23377284505080
H         5.07772801809884    0.28241620421029    6.51112559478084
C         5.18974099198276    1.16773690850138    4.55897697084121
H         6.20735910784160    1.50374843011081    4.77249895732747
H         5.17025152783178    0.84173358848321    3.51670717769438
C         4.23246982548535    2.34638237409976    4.73777067473088
H         4.16239854218005    2.59114640460581    5.79888653176240
H         3.24008023984341    2.05652764425017    4.38903009536106
C         4.72459159393463    3.56171673430285    3.95514659552995
H         5.04197315962214    3.25843580556816    2.95071677915195
H         5.59918763822138    3.99815556629458    4.44776588075969
C         2.71664434397085    5.12889090113598    5.36816372524773
H         1.90165842057372    5.84927551256121    5.25267253106520
H         2.28172727519730    4.15593863370477    5.62590633749107
C         3.67618721588847    5.58380910318334    6.46495616702978
H         4.57703420387941    4.96557848519392    6.44781044043553
H         3.98593008508894    6.61240351399318    6.28750011153197
C         3.04583660885181    5.48202773048321    7.85373202163508
H         2.68493184103337    4.46063069704249    8.01024851842404
H         3.82773001390910    5.67035654971955    8.59273788683642
C         1.89786447860860    6.46180328083750    8.10426604203069
H         1.07876621834054    6.27227437291811    7.40799861242659
H         1.51433177015768    6.28211909886819    9.11243179316845
C         2.33658750236781    7.91954897366079    7.99035277720027
H         2.54361400417095    8.15724535843872    6.94809084585937
H         3.25989062083530    8.05907985367224    8.55762611484488
C         1.28340330242306    8.89158447988368    8.51687733022402
H         1.10851989105775    8.68768431023501    9.57669757249793
H         0.34053191719173    8.73562854048796    7.98845799606143
C         1.73088828291303   10.34441565461031    8.34497253049195
H         1.14886349738918   10.98908510293699    9.00781721622980
H         2.77437995146758   10.41856198481116    8.65255186448693
C         1.57955565515223   10.83657105108863    6.90301426750346
H         0.55718595224599   11.19111016491655    6.75341650044969
H         1.73921895494519   10.01175171050303    6.20750167593582
C         2.55854770955504   11.95199907723528    6.53818554633128
H         2.47559344240786   12.77366686376887    7.25381622160727
H         2.27302772873339   12.34057617824223    5.55919445559520
C         4.00657322813962   11.45680440776078    6.47994945576901
H         4.43256978662767   11.44686672321168    7.48418695464677
H         4.00971926837965   10.43111159696169    6.11253294231130
C         4.89328472165046   12.31933147062976    5.57911859937672
H         5.94341207988588   12.13771023924063    5.81935552689159
H         4.68624234328487   13.37277667535486    5.78133822688793
C         4.67202149554392   12.03710884212710    4.09186264625938
H         3.60061949430667   11.96582991265444    3.89821159360298
H         5.06430811607097   12.86742139336273    3.49813004663087
C         5.34338164821453   10.74180833303113    3.63782360919373
H         5.05072664145309    9.93415085902844    4.30857321721528
H         6.42725430642115   10.85408081867118    3.70431585168296
C         4.92924566088084   10.40425921864432    2.20711927434780
H         5.33258473379806   11.14443067351409    1.50558155609181
H         3.83583330175469   10.43053003189388    2.13418366530557
C         5.14052440511108    9.02074159769961   -0.20992218751620
H         4.15646195345661    9.49257508408514   -0.30194629878286
H         5.89001961686179    9.74146865539137   -0.55479830241940
C         5.19511104469585    7.76367821549286   -1.07516664520498
H         6.06176142014852    7.16540829705429   -0.79534594465565
H         4.30582050696474    7.15235582656900   -0.90252354246758
C         5.28644304617833    8.11471215501007   -2.55865673540174
H         6.19745149302820    8.69052335725143   -2.73548514432913
H         4.44104211178709    8.75406370574286   -2.82598957732536
C         5.27262372041210    6.88637412649208   -3.47183052590785
H         5.39992223440618    7.22808498332467   -4.50175147087761
H         4.29301717982858    6.40667515879025   -3.40333651724077
C         6.34388062831724    5.83854741134439   -3.15905400010158
H         6.13454687171712    5.37825637841997   -2.19091515343325
H         6.27508709936506    5.04743444165157   -3.90992649973685
C         7.76688104569259    6.39276856777965   -3.15230349846840
H         7.97981744658370    6.87183416986013   -4.11087189054964
H         7.85282700540788    7.15240881198755   -2.37597535746143
C         8.79284508695181    5.29171918859543   -2.89006796134366
H         8.79744522265715    4.60383660162222   -3.73931474276816
H         8.48673524644176    4.71748006976214   -2.01404787139721
C        10.21505373784346    5.81871414407320   -2.68390941668647
H        10.89496703476280    4.96466006193431   -2.63230390942476
H        10.49934374766625    6.41297552807664   -3.55630441232436
C        10.40854123365785    6.67141829816791   -1.42684747273784
H         9.76059344754893    7.54693025756181   -1.47825696050467
H        11.43983955600631    7.03373564170426   -1.41457081998956
C        10.14448764755752    5.90301822675946   -0.13376215237934
H        10.77607357307479    5.01100085411785   -0.12313780570495
H         9.10846222844112    5.56611168655279   -0.10380495714422
C        10.44072887987953    6.71336314788744    1.12954472581817
H        10.27981539913142    6.06733759933291    1.99583756996405
H        11.49332536759332    7.00660157669041    1.12802662611296
C         9.58837940700937    7.97266163018752    1.30490518066267
H         9.84409350701813    8.70742503573128    0.53809957628904
H         9.83242690322350    8.41217877515539    2.27494504707574
C         8.08796779051452    7.68717286843607    1.25692385112613
H         7.80475338155466    7.43146602099568    0.23549709199349
H         7.87326535741803    6.83024767447545    1.89925958893305
C         7.28620697906800    8.89145383317978    1.73968325518543
H         7.56933654583647    9.79279246777570    1.18317012758817
H         7.50452166642773    9.05708890829843    2.79913151531726

