155
CSD_code = UJEQUX | q = 0 | S = 0 | Stoichiometry = C56H94O2OsP2 | MND = 6
Os        2.27493981332465    5.65254435592401   17.75364236609564
P         2.35593277985090    4.49018563883209   19.85367685450131
P         1.82890780706981    6.65622083101390   15.61935618159388
C         4.08145127777981    4.25153468266513   20.50006298796554
H         4.64806557223371    5.15333747905913   20.24714158830497
H         4.03057269460209    4.18227669936763   21.59164328792315
C         4.80377810416193    3.02659840599635   19.94290503347801
H         4.70068064939713    3.00425726909284   18.85688311362741
H         4.34509363288677    2.12050013081909   20.34325600764332
C         6.28583970264402    3.03990316804062   20.32459724848825
H         6.82460414832148    3.73362463235870   19.67797428271539
H         6.38219355128243    3.40932325668651   21.34953233535332
C         6.92958232200582    1.65336515494196   20.26551759063424
H         7.96920810730580    1.73722173365936   20.59195923341385
H         6.41398333209503    1.00451143611368   20.97914461867301
C         6.89633998780157    0.98501934930941   18.89095106398873
H         5.86680802482961    0.93918517511728   18.53493034159680
H         7.24731732779496   -0.04431636139794   19.00530931035938
C         7.77678863833584    1.68492456216565   17.85800723047561
H         8.78782889484248    1.77001981114845   18.26454334759123
H         7.40775657042331    2.69459558980434   17.67912962183092
C         7.84085510966071    0.92203671455837   16.53272399829395
H         8.69443221569051    1.28141636732933   15.95277438555666
H         8.01412407605165   -0.13551357907578   16.74776089795657
C         6.58048647414670    1.06392642704050   15.67642351160585
H         5.69383396225534    0.92424051221206   16.29757729691236
H         6.57399489588754    0.27571158961706   14.91925811334840
C         6.50146132569748    2.41737094394309   14.97491432758534
H         6.57326843242456    3.21899274811847   15.71125758720843
H         7.35072476128996    2.51831247744575   14.29390766988380
C         5.20225338388503    2.59028041512971   14.19320724056856
H         5.09164687035262    1.77324747209219   13.47556808027604
H         4.35971074734914    2.53523797049724   14.88464981388134
C         5.17318958059423    3.92458055272737   13.45122967501990
H         5.43309684326792    4.72376707245366   14.14751614869444
H         5.94112272691462    3.91077554920892   12.67389455856013
C         3.81679841573390    4.21710519442038   12.80844339452183
H         3.46968345180056    3.31338310303593   12.30249533641477
H         3.93626739365989    4.99367051908894   12.04788723683921
C         2.74617558325057    4.66903360901495   13.80565404835731
H         2.74347633031426    4.01066008102946   14.67568151985886
H         1.76839282272535    4.58261833296946   13.32824945207852
C         2.96130180162259    6.11052416116579   14.25892681982701
H         2.82890120952683    6.79301156753808   13.41188931728630
H         3.98147500673549    6.23084883977488   14.63352597197330
C         1.69286483694779    2.77377711130372   20.07695428552828
H         2.16962550293271    2.14397544511405   19.32177820361919
H         2.00171308602709    2.42805730713013   21.06984523564611
C         0.18065985619684    2.67900467914919   19.91547769722263
H        -0.07616483210085    3.08741334042896   18.93773021194284
H        -0.30773672886652    3.27511488823024   20.68699269233720
C        -0.34191267990980    1.24275811005136   19.97458746102920
H         0.33894599413606    0.59461617383313   19.41729499815876
H        -0.36644659342190    0.89156723761481   21.00916632270249
C        -1.73250824547356    1.12463261692128   19.34513016990853
H        -1.66047569158500    1.46778286284606   18.31227886200304
H        -2.02805816270888    0.07263625891187   19.32571563223594
C        -2.80419035519245    1.92597323296410   20.08247575000974
H        -2.48676406651874    2.96308869001974   20.18162019904618
H        -2.91345503579891    1.52042596134666   21.09207381086605
C        -4.17135856101670    1.88734290534289   19.39393023179971
H        -4.90828888309209    2.34084668664657   20.06214435919280
H        -4.46096410350250    0.84368233812873   19.24597028906708
C        -4.23338842863042    2.60650699398741   18.04315648221427
H        -3.50140699422858    2.16783475626220   17.36352752304607
H        -5.22220466839677    2.43452074078551   17.60931306894224
C        -3.99216402195869    4.11179142251873   18.13943653549606
H        -3.00601478661187    4.29326020536677   18.56718169717620
H        -4.73436263879576    4.55752424955863   18.80661239648892
C        -4.05140038707863    4.79921033488872   16.77611189067540
H        -3.32807369595557    4.31818100037488   16.11652112231198
H        -5.04126131736837    4.66285377358291   16.33301084785114
C        -3.73691167814321    6.29147427466643   16.88431156737036
H        -4.55234723834137    6.78308969662808   17.42068796961685
H        -2.83517768549091    6.42638599682622   17.48232489281066
C        -3.55496155544568    6.98763337825375   15.53352468629934
H        -4.42362646310143    6.77199930762954   14.90609853750686
H        -3.52589292617023    8.06751535001157   15.69801380542712
C        -2.29033628233429    6.57284720266950   14.77720416363601
H        -2.35076010602871    6.95756866116878   13.75533998138343
H        -2.25341126076110    5.48447733128204   14.70751251449888
C        -0.99439603038395    7.07570285557488   15.41725465210620
H        -0.98311056293827    6.84112722193368   16.48162185370696
H        -0.94067028006563    8.16252369694203   15.32498122865828
C         0.21414956087614    6.42417328281492   14.74962266609695
H         0.33946219687462    6.80428985568060   13.72942515904125
H         0.05404860286479    5.34460072572513   14.69159809590738
C         1.59113644341456    5.29710707128868   21.33139849497953
H         0.51536893950592    5.34985691956077   21.14981155400533
H         1.76725000159039    4.64319251047134   22.19298371568361
C         2.10477924778832    6.70481515148832   21.60744667130563
H         1.92398366558787    7.31662566650692   20.72095138781050
H         3.18005175190365    6.68261539713259   21.79365123034554
C         1.37621493970415    7.33619803766211   22.79582419761551
H         0.31310389178925    7.09482372953478   22.71657407412210
H         1.74667234382860    6.90800701296730   23.73062787703829
C         1.51353490757558    8.85807481330065   22.82608484225181
H         1.16799290130783    9.24063731949064   21.86514950882814
H         0.85668234492958    9.26056867296627   23.60136525495484
C         2.94002272336281    9.33224831109846   23.09261472851749
H         3.61286585565465    8.90769898115360   22.34795935894853
H         3.26077730483664    8.95966853785006   24.06938158194048
C         3.07861862668968   10.85722250986644   23.08975780016187
H         4.12321096778087   11.10832490626370   23.29101669480131
H         2.47810116758412   11.26835432066851   23.90549003080946
C         2.64940191277856   11.53526896179766   21.78601074256479
H         1.58320817408461   11.36685923449386   21.62367136069425
H         2.79130685871568   12.61386806431572   21.89359083010308
C         3.42616551324677   11.04728058764834   20.56630676783910
H         3.37285157897931    9.95927362026780   20.51450804055792
H         4.47829319553570   11.32387380177780   20.66620932430645
C         2.86786099442501   11.60442580321184   19.25920735241018
H         1.80683905340623   11.34882911557665   19.19605173428008
H         2.94430336082392   12.69408539798559   19.24702318229600
C         3.59438381516720   11.01106559435914   18.05363324545182
H         4.60146179556630   11.42878694264176   17.98728391986366
H         3.69914183205585    9.93858494624966   18.21630337200071
C         2.85150270813774   11.25482798768824   16.74269984032831
H         2.83331699320116   12.32806847100178   16.53744733715560
H         1.81415466182212   10.93096225520762   16.85052502526148
C         3.49497712649630   10.54171820697368   15.55174849687460
H         4.54755147403775   10.83067491460232   15.50227740789710
H         3.01553636880959   10.88684409733885   14.63159843437206
C         3.41478962497976    9.01188989609660   15.59639263591571
H         3.82268321494162    8.64185818382711   16.53823541499644
H         4.04564257521618    8.61886706207344   14.79597459026128
C         1.99266089670058    8.49022764435833   15.41713378297600
H         1.62429657280611    8.74501359688148   14.41755391919837
H         1.32287456051978    8.94568244587681   16.14839964049732
C         3.38723251889303    7.00588342633057   18.50243037013595
O         4.24070248553277    7.61062208641972   18.99523846965033
C         3.97828706062579    5.00408031698075   17.17809552182160
O         5.10202303498326    4.90836249226260   16.92786530726507
C         1.26542458446776    3.91590446230623   16.97012522866823
C        -0.08435844968805    3.81322704222149   16.60601103632341
H        -0.74541274726233    4.65375232632544   16.76444193424159
C        -0.63491345070802    2.66601070307148   16.05498910158927
H        -1.68092990715498    2.65438986197729   15.77371675656048
C         0.13899558443103    1.53848921777305   15.85736066561258
H        -0.28727579450439    0.64222769041959   15.42902027846971
C         1.47089420158243    1.58260059082180   16.22493848304198
H         2.09952443925000    0.71167748989252   16.08813006451383
C         2.00866494826897    2.74149674671782   16.75877540112557
H         3.06398946533940    2.71872300590670   17.02006013880301
C         0.55630429023667    6.71275718401137   18.52027661014379
C        -0.60086247706708    6.13147655334978   19.05451915310726
H        -0.73702452556265    5.06102525314975   18.98316365450150
C        -1.59948416926079    6.85991677063940   19.68425130454753
H        -2.46042752079398    6.34697758925364   20.09477922577262
C        -1.49892792818638    8.23324380762820   19.79627266675198
H        -2.27377100260894    8.80667705689374   20.28498324334739
C        -0.37973696426824    8.85496952113642   19.27434537576385
H        -0.27532730443808    9.93026318647349   19.35155135681139
C         0.61703518568251    8.10949369465888   18.66797553254787
H         1.48848850566442    8.65021541868722   18.31396791730351

