59
CSD_code = UJEWIQ | q = 0 | S = 0 | Stoichiometry = C27H24N3O2PPdS | MND = 4
Pd       21.02516800821882    1.48746408243837    0.81240587736997
S        23.11154475132392    2.03108156863624    0.02445834466019
P        21.40366515225521   -0.71359782323224    1.05712823193512
O        19.16229670436287    1.10955085398724    1.54010290647369
O        17.00618556659634    0.16981279151461    2.56431087631261
N        23.79703656929246    4.53020526481147   -0.48792431642893
H        24.58252041246956    4.07943445822304   -0.92424819053086
H        23.57526526608871    5.47035366767833   -0.76870808356360
N        21.62375316420482    4.26921037817866    0.18356949303706
N        20.65499896183064    3.43411662890103    0.64381168851774
C        22.76491573354691    3.73699180777915   -0.10157030106469
C        19.51447659795301    3.99132139951901    0.92588273151794
H        19.46119615239408    5.06720462862665    0.75525045931402
C        18.34034824369025    3.37631650921274    1.44461741038909
C        18.24002039163430    1.98676391817713    1.73451455838065
C        17.00432694468219    1.51314519698006    2.29489780348712
C        15.95433924985855    2.36523769349352    2.52078086849548
H        15.02745405535008    2.00336661171421    2.93787692495840
C        16.06873184696703    3.72734711053520    2.21212204584325
H        15.22951592449378    4.38067434159748    2.39554579310469
C        17.23071844200888    4.21612178150560    1.69203270874450
H        17.32291459067339    5.26752518571917    1.46105321260568
C        15.86386317737772   -0.38187740334384    3.16001089916949
H        16.09619935302409   -1.43347569447840    3.32126243506859
H        14.98662464330993   -0.29870593979182    2.50785573817682
H        15.64138733965723    0.09104575406950    4.12324260189083
C        21.64518450628972   -1.61188289365558   -0.50481210568477
C        21.61777031743386   -0.85341027307559   -1.67185018079672
H        21.46107199282719    0.22695079381059   -1.59550842060760
C        21.77533143682802   -1.46693420182205   -2.90153063736568
H        21.75655337548197   -0.87942802992651   -3.80749018721145
C        21.95248881878430   -2.83966068556915   -2.96865981573773
H        22.07827977115304   -3.32066344156462   -3.92747783660386
C        21.95310066453498   -3.60126144049119   -1.81020850221451
H        22.07331332451635   -4.67326340746770   -1.86997454724740
C        21.79267603517271   -2.99360439563756   -0.57817471388511
H        21.76245280373165   -3.58714422068344    0.32549867294080
C        22.92622498191803   -0.87207961878882    2.04512715248470
C        23.89031975159786   -1.86095939046078    1.90973625714728
H        23.77511836719371   -2.63266861175943    1.16317555425548
C        25.01248824333873   -1.83947682735421    2.72144376517664
H        25.76726790765387   -2.60454042563400    2.61197559655998
C        25.17379447275866   -0.84001182685450    3.66596725194440
H        26.05286718577526   -0.82849146186196    4.29324832884472
C        24.21654500224991    0.15497861167974    3.79956361467410
H        24.35133830324263    0.94082814020528    4.52805554822826
C        23.09922249242221    0.14370156172983    2.98728466886508
H        22.34060600925398    0.93524481641421    3.06065250208433
C        20.20654809473440   -1.77250567383120    1.91633455657949
C        19.03672807186404   -2.09278949051504    1.23354310390785
H        18.88898575953035   -1.71263971781775    0.23150420998138
C        18.07644663782208   -2.87873148167629    1.83817081648440
H        17.17142322031140   -3.13089760487639    1.30481108027830
C        18.27149815129838   -3.33774146416372    3.13194423749599
H        17.52067805817473   -3.95352353069709    3.60675615236425
C        19.42497642328152   -3.00313890411371    3.82069101880104
H        19.57081402120742   -3.35281987284371    4.83265459027944
C        20.39365411690487   -2.21967578077942    3.21797875383226
H        21.29376443753326   -1.95669402237569    3.75678679629929

