47
CSD_code = UJEXUD | q = 0 | S = 0 | Stoichiometry = C12H25B9Ru | MND = 11
Ru        9.67585042931731   14.01265237913086    3.23922451669685
C        10.22493697340425   13.61347402053619    1.10365657936328
H         9.47974059457695   14.10754147096588    0.47709214505965
B         9.81154037066340   12.22753671475958    1.96746097788927
H         8.72307587420269   11.75936830827008    1.97434538070888
B        10.78866130762294   12.12130952178552    0.48172987194115
H        10.28690647725256   11.71326152149855   -0.50108611481052
B        11.81097941778723   13.55191575885575    0.46493220201696
H        12.01869943153082   14.13239103263453   -0.53702622019507
B        11.38840930426918   14.50452963480300    1.91471457340275
H        11.41712633300805   15.68466440089009    1.81862319179066
C        10.90073428115754   12.13141570603601    3.25361855983109
H        10.63946990584150   11.57447349154632    4.15536781016950
B        11.22836669756101   11.15150612982828    1.89027762366487
H        11.06928755554411    9.99076403525364    2.00081721974648
B        12.49682697453362   12.00478296911758    0.97316324321119
H        13.29737668318727   11.43365139160755    0.32850514608772
B        12.86705670192609   13.50598382560794    1.89082656321431
H        13.93384645825994   14.00311803952225    1.89784762239425
B        11.84029191692114   13.51481539663702    3.35053830082535
H        12.22866810827148   13.90682605143431    4.39908874314900
B        12.52546431726974   11.98429191156154    2.73943787373387
H        13.26661504037236   11.39245924921501    3.43544624893391
C         7.62864651226981   13.70880063723788    4.23550833124460
C         7.51979521625777   14.64424855636139    3.18583642294106
H         6.73395703337132   14.52630899169352    2.44590366755744
C         8.35759168182547   15.78586708942455    3.13337300128999
H         8.19569832444741   16.53112488298615    2.35983273026931
C         9.30475209660324   16.04057745608630    4.15414744102372
C         9.44961534610484   15.07926018038926    5.17917952377791
H        10.13800439616905   15.26886544690584    5.99618305472969
C         8.63841808044004   13.91903505342006    5.20563732173154
H         8.72177322185977   13.24554437693153    6.05174208590745
C        10.07894671734433   17.32494571821118    4.19146056395489
H        10.18049841733756   17.74860537707561    3.19482893920294
H        11.07305846404872   17.16485564038446    4.60342828122524
H         9.56016596233206   18.05174450394729    4.82010030953336
C         6.61301086005058   12.59651068403332    4.35760233660063
H         6.20028305919655   12.40302772217806    3.35996881105112
C         5.47162832265074   13.07868608255981    5.26215663356745
H         5.84479966648095   13.28981101822464    6.26259475344110
H         4.70028236862233   12.31548032578538    5.33483746862189
H         5.02329682431578   13.98720308952255    4.86455664618345
C         7.19577125489287   11.28657335434824    4.88821246107763
H         8.06221879528465   10.98759825094992    4.30309421169448
H         6.44826130433415   10.49954840043216    4.81972411419721
H         7.48859491927954   11.37814419941262    5.93158883035054

