33
CSD_code = UJEYIS | q = 0 | S = 0 | Stoichiometry = C7H16B9Co | MND = 10
Co        6.12932781612078    8.61610236895718   15.84253549979371
C         7.50620651136634    8.56940933714094   14.32811250126702
H         7.71546340703259    7.54083686428281   14.04540747276712
B         8.09087603381113    9.14026781234364   15.79513127257955
H         8.73629970273223    8.44237743188346   16.49233529448744
B         8.82421268380840    9.63964644419670   14.24250517594214
H         9.88636618136310    9.22482020979128   13.95996394906753
B         7.52453001782358    9.70042060810849   13.05908346987568
H         7.68656889407180    9.32769160774788   11.95685846479583
B         6.02274166697461    9.23699737934661   13.91186295990975
H         5.23334332848941    8.60719669512976   13.30371139734634
B         6.97774499463238   10.42096089032343   16.31590730779618
H         6.82143577275917   10.83724789368501   17.40614179714622
B         8.48441926291613   10.83653040166244   15.49938252840377
H         9.27751825407790   11.48833232972758   16.07173245634978
B         8.11439061097854   11.18730727874247   13.79452125362037
H         8.65355243650249   12.07678199689786   13.24792864745611
B         6.36691674168126   10.93544945260043   13.57180243147384
H         5.75785563478951   11.65272278099394   12.86752807740940
B         5.67297645928842   10.48182013399065   15.12816622258421
H         4.62473011158475   10.93961746301113   15.40740474947686
C         7.00291532236109   11.53534689903821   15.03333667218813
H         6.83089638465079   12.57626095108968   15.27555435663505
C         4.79993992033136    8.36802927394204   17.40156377411094
H         4.35034178126336    9.11630128907304   18.03284181544416
C         6.12573711736705    6.65021176213093   16.70282794943188
H         6.88402247059737    5.88449737526270   16.68345862841870
C         5.04738856442812    6.76494176431012   15.79834315647654
H         4.84409877158939    6.10135568434300   14.97395531438458
C         4.22090880583523    7.81724327686689   16.23262134125114
H         3.27028630505231    8.09303188958932   15.80852524620702
C         5.96800068540492    7.62803255722207   17.70190419055419
H         6.57528734831448    7.73610989656829   18.58454462534876

