53
CSD_code = UJEYAJ | q = 0 | S = 0 | Stoichiometry = C24H15BF10FeO2 | MND = 8
C         2.53800702359248    4.55635086725739    4.14179483896069
C         1.14716416794426    4.87476924847027    4.05825973004822
C         0.77036446443987    4.86933971346693    2.69180058725393
C         1.93724717050103    4.53515013859251    1.91947765498481
C         3.03101965260293    4.37115082107967    2.81584348418430
C         3.36365441287393    4.74084887921664    5.37426393894529
H         4.33714347899949    4.26721747693958    5.27855536544142
H         2.86141695081803    4.34386896672785    6.25185289292128
H         3.52329803853341    5.80779350361534    5.54066490516827
C         0.29063125004155    5.26354245561728    5.21861279504306
H         0.44447631356021    6.31627239242154    5.46000015750815
H         0.54190442567448    4.67378611769294    6.09606260966524
H        -0.76166372739994    5.11498401740559    4.99429079513206
C        -0.54890191008875    5.30223896415668    2.13604812814672
H        -1.35866749985188    5.05308587189003    2.81672526117083
H        -0.74540890074240    4.82292505657550    1.18097327447984
H        -0.55209687817259    6.38237948949616    1.98184579959686
C         2.05384933866971    4.59668940576735    0.43075548008518
H         2.38153897204088    5.59114413766031    0.12471663098423
H         1.10032269141360    4.39042783682475   -0.04660254209314
H         2.77905477456903    3.87217671856417    0.07357573174458
C         4.45550891673908    4.21078151057849    2.39616605293649
H         4.83802253838875    5.16273379345576    2.02547349968187
H         4.54282840302599    3.47905254426864    1.59745455183643
H         5.08122462153568    3.89486032018501    3.22640636864032
C         0.59621097820379    1.89470598445129    4.28777951518296
C         0.52782805515981    2.10342754523738    1.93703520993182
C         3.77023209107592    1.39038561037192    4.35508784577847
C         3.65258595987089    1.62796414279640    5.72531516388940
C         4.73483075892606    1.60236260257790    6.59447556162176
C         6.01110003953146    1.35333458417091    6.09771255804883
C         6.17536170966039    1.12260203765764    4.73429217815109
C         5.06648827795167    1.12979928970826    3.89945288112335
C         2.43474069817250    0.09907433358454    2.48415719173652
C         2.12524505093341   -1.16265398874296    2.98394721978075
C         2.01071944591877   -2.28366748273863    2.17018094860712
C         2.23886119799941   -2.16228098035012    0.80278909509097
C         2.56873089582296   -0.91879059811777    0.26860991977125
C         2.65226129113948    0.17959823842327    1.11067389931099
B         2.55161330040936    1.37835321891800    3.38506810929046
O        -0.05526009540580    1.20940874130315    4.93704052203960
O        -0.13303703588537    1.58883030171703    1.15566831241820
F         2.44191098515426    1.89971489877959    6.23527599942483
F         4.56059296949177    1.83697633304678    7.89852012671621
F         7.06452719511679    1.34226483777785    6.91590511559717
F         7.39465196405174    0.88698661379107    4.24056343955387
F         5.25927273588921    0.89429572915205    2.59283524826593
F         1.92191130250605   -1.29816470835528    4.30291035136119
F         1.69824559047498   -3.47373665740484    2.69021991961453
F         2.14246852289633   -3.22984989264556    0.00852662168815
F         2.78980443661670   -0.79291948638760   -1.04261275820198
F         2.95138468637595    1.38131789948901    0.58856259163424
Fe        1.45107830223466    2.90419060386079    3.16538922011221

