78
CSD_code = UJIFOK | q = 0 | S = 0 | Stoichiometry = C32H40ClN3OPd | MND = 4
Pd       10.53896256692544    8.94664309405814   12.74431326021920
Cl       10.87829519734412    9.34517584285372   14.93560753804073
O         8.58931575432855    8.80579128486565   13.08712685258727
N        12.44440128855217    9.16985962550778   12.15200006630717
N        10.22994625305276    9.27563623288469   10.59427059192952
N        12.48457464918690    5.71845175875934    6.53089852928919
C        13.39247948766936    7.68716484582720   13.79777428403327
C        13.55630739261952    8.63705177780410   12.66321402655216
C        14.80145234395375    8.95265427806198   12.12625068211719
C        14.88280587809875    9.79628197220864   11.03294286474844
C        13.71059178851060   10.28757370074459   10.47473421729412
C        12.50505583306697    9.95724410672386   11.06817917448258
C        11.16540757075793   10.40979016876409   10.54017042949797
C         8.81803912868109    9.67460898563557   10.43231382813165
C         7.93364999567167    8.51718698612423   10.82546385775541
C         8.01842107731081    8.06989440240187   12.16699464889555
C         7.42187260871787    6.81594959094711   12.47656415272715
C         6.62378237993259    6.21611738950020   11.52269560427536
C         6.40292765532794    6.74677685835289   10.25159360886823
C         7.12709976965107    7.87581172993617    9.90272135958807
C        10.61426892254154    8.17335880415579    9.70941542785198
C        10.77593882594327    8.52010074777287    8.21689430358283
C        11.20399345667889    7.30634989943294    7.46044218147054
C        12.48399560424817    6.87959327545233    7.25535018231108
C        11.19494138548231    5.36965671239663    6.25170524561153
C        10.68184514064010    4.29214461460610    5.54047367056669
C         9.31274552880364    4.20763287170309    5.41102903399361
C         8.46786706437544    5.16813233542685    5.97504719982858
C         8.97091280403338    6.23459791429049    6.68386155956727
C        10.35246094449484    6.34902071330999    6.82942008320911
C         7.75364515746096    6.14263544769898   13.80312567385861
C         9.27395843785998    5.89109432130662   13.83033021054362
C         7.34826179154951    7.03116964417912   14.98482081818065
C         7.05579612548974    4.78802210573767   13.97154754635929
C         5.44266431666869    6.04115568711939    9.30649811739554
C         5.18993274146360    6.83675583452260    8.02248469007699
C         6.02477441418855    4.67148093946746    8.92891504857902
C         4.08865149717439    5.85296840385669   10.00623916225816
H        13.16891084872974    8.24823907076589   14.70801007922471
H        12.52755856469515    7.03877414843957   13.61440589211973
H        14.28730387188404    7.08930114739043   13.94551175052304
H        15.69227348568884    8.53355436123611   12.56618643883811
H        15.84021109926765   10.05420887773468   10.60710109257843
H        13.73283242110513   10.92031462866312    9.60135308495756
H        11.26115999321855   10.83333359726554    9.53021914835942
H        10.77668325561235   11.20099269902124   11.20635929591518
H         8.63336286630693   10.51847686437680   11.11410936607656
H         8.60870420593455    9.99720287218728    9.40320569984483
H         6.14697001782695    5.28179524781422   11.76494266029574
H         7.07056066319588    8.28622783925137    8.90546956156459
H        11.56553063568756    7.75902885288285   10.06397162555567
H         9.85073451552249    7.39607421323172    9.81119215117163
H         9.83173502704017    8.88583478219986    7.81222766884768
H        11.53689589838793    9.29317759308977    8.09075629026120
H        13.40760001318827    7.32868355862002    7.57014437322953
H        13.30312387841278    5.20938192050389    6.24529398470333
H        11.33474418979577    3.55080198509906    5.10356401988221
H         8.87956060263215    3.38465925332504    4.86246545118854
H         7.40076928562790    5.06347798512591    5.84608624372491
H         8.31590588455273    6.97101384988084    7.12335348245011
H         9.55477182637386    5.41131791087335   14.76546183915946
H         9.56029766183532    5.24210770400614   13.00179184276559
H         9.83639422974977    6.83840829738429   13.75622419268682
H         7.88973366084320    7.97145968541480   14.95484210872451
H         6.28158456214349    7.24252839431650   14.94576777437831
H         7.57141683064517    6.52909040801577   15.92400679419972
H         5.97424893335945    4.90264173738044   13.96369252032440
H         7.34858568316525    4.08867042980582   13.19090193690418
H         7.33916899483713    4.35770560886024   14.93008084760279
H         6.09209904874546    6.92176966182979    7.42295685585725
H         4.44030400025890    6.32713140629833    7.41981468800786
H         4.81952343381249    7.83335477996976    8.25262048975576
H         6.16069414875098    4.05057809434778    9.81040369881745
H         5.35610915022271    4.15208246583744    8.24493139826221
H         6.99255091774263    4.79077363798468    8.44574342280698
H         3.69168475726190    6.81661044982830   10.31825043077200
H         3.37639480874531    5.38822288129233    9.32698160141452
H         4.17736334852648    5.22145619398827   10.88506846365449

