82
CSD_code = UJIFAW | q = 0 | S = 0 | Stoichiometry = C32H43ClN4OPd | MND = 4
Pd       -0.01048031809244   -0.19669230814567   12.59509397703266
Cl       -1.63658918144632    1.06717375017779   11.70328353162181
O         3.51118364651695   -2.90880612077665   10.54891648655911
N         1.34484082485999    0.10830133705984   10.92101443438544
N         1.84204880337987   -1.04184771143696   13.50393435110762
N         3.47816848552810    0.37339033996930   10.48144206393591
N        -2.30327621932305    0.07170614859274   14.50599395292931
C        -1.01649753868285   -0.36250531607964   14.29902357496205
C        -2.69804615391077   -0.20891760676109   15.77849469037944
C        -3.89511419544906    0.04166158870460   16.43491937632640
C        -4.00491147758663   -0.36930140279270   17.74652339696016
C        -2.94901874044215   -1.01671513001570   18.39345944025641
C        -1.75877432918587   -1.26976767403592   17.74892306873295
C        -1.61717605824327   -0.86300717815761   16.42231857085079
C        -0.56314553644393   -0.94662831121560   15.46277018142235
C         0.77469253161277   -1.56990284009535   15.73317304791497
C         1.91826319156877   -0.90583507058727   14.96501963208140
C         2.82540420381787   -0.14722576673905   12.88367464667005
C         2.55769357658315    0.07369216510859   11.42784949391437
C         1.45928150223823    0.41802630531712    9.59921047149277
C         2.78708376929811    0.59358862972080    9.30717457606328
C         2.08722837297554   -2.43473882872477   13.09405255061836
C         1.44095449043691   -2.74250569061957   11.76403356490650
C         2.13734605498645   -2.96669772766851   10.57976932680655
C         1.43530501903472   -3.26224161861336    9.39788779319759
C         0.05175467337318   -3.22015462098583    9.44582527818352
C        -0.67622765711679   -2.97079332322574   10.60736561546428
C         0.04221746531861   -2.77066576385514   11.77641335039559
C         0.26462030069067    0.49855427253809    8.72064269618993
C         3.47207866280828    0.99988487682595    8.05380380148586
C         4.90747597352246    0.42699006809855   10.61235070692423
C         2.17617920053586   -3.64874518759554    8.12271317985684
C         3.07203199264665   -2.49243273005686    7.66493999533112
C         3.02677038889601   -4.89568961218504    8.40558190678269
C         1.22935272832955   -3.98729713482890    6.96668728476567
C        -2.19575953316124   -2.96037048240674   10.56519081603179
C        -2.80167329062650   -2.61892189168281   11.92828980607128
C        -2.70373571646419   -4.33875701011422   10.12056988970437
C        -2.65221433167732   -1.87807970658319    9.57915217965758
H        -2.84222876828710    0.56780620430016   13.81020858094588
H        -4.70948425427396    0.54233553971211   15.93182705754034
H        -4.92239815711290   -0.18966667090648   18.28833840416118
H        -3.07549556236253   -1.32342072405530   19.42243874181333
H        -0.95188706613653   -1.77402068344263   18.26284716899313
H         0.99978733168093   -1.45740338906221   16.79708879111939
H         0.74155174224547   -2.64785668148960   15.53495852548959
H         2.88193341289284   -1.31192681742791   15.31993858578231
H         1.88487418296719    0.16316232150860   15.20075650920160
H         2.75880924106319    0.83001561586348   13.38684780177273
H         3.84980566629928   -0.53408108795901   13.03700333529812
H         3.17211659002561   -2.64212637642605   13.12182968562745
H         1.62285738837159   -3.08735447821682   13.83655800723036
H        -0.49921346315726   -3.41263042208001    8.54224540602856
H        -0.45510736152174   -2.73539387583231   12.74312817184011
H         0.44233785723201    1.16217368042896    7.87845756831809
H         0.00953033256445   -0.49353020942773    8.34833323185982
H        -0.57902523690684    0.86648505251246    9.30194044692507
H         4.24605326455617    0.28548398638045    7.77655655491119
H         2.74785199073828    1.05686335479107    7.24700088526902
H         3.93478174507268    1.98211359633685    8.16687279833248
H         5.35944731240126   -0.49872555651204   10.24483588171786
H         5.29732865121651    1.26037123777722   10.02856746599168
H         5.18744390925092    0.57451546748682   11.65362152416696
H         3.60404960842780   -2.76911331663602    6.75690924927918
H         2.46485143695586   -1.61433105666927    7.46081431262343
H         3.80045078508193   -2.24750664639617    8.43011992133579
H         2.39462748428718   -5.70847616234693    8.75748773572153
H         3.53047681041133   -5.21742452609413    7.49661807865454
H         3.77991347880988   -4.68990375072866    9.15891105421090
H         0.57992971002682   -4.82206539411361    7.21940326263059
H         0.62210659280931   -3.12978890359078    6.68574978009484
H         1.81899241250535   -4.27442043018521    6.09823767254053
H        -2.41389328521383   -1.65754099570727   12.27749169045567
H        -3.88151670348946   -2.53325645447566   11.83468751389688
H        -2.58962265106711   -3.38805773691254   12.66783172993031
H        -3.79118126682926   -4.35169648855403   10.12396061565118
H        -2.36411054216575   -4.58330932158725    9.11750474720430
H        -2.34769218308162   -5.11071332426087   10.79995190642830
H        -2.31261199113812   -0.90694350899629    9.93325717391372
H        -2.26050032635735   -2.04777727619344    8.57988228864561
H        -3.73786485286817   -1.86143926081763    9.52028824035902
H         3.84568915291829   -2.79245024656572   11.44500918803655

