83
CSD_code = UJIJIH | q = 0 | S = 0 | Stoichiometry = C24H48N2NiO8 | MND = 6
Ni        3.66790468598392    5.58331031905172    3.13616665987368
O         5.32280629134088    4.79441567723820    4.66635882097358
O         3.76378680895171    4.99667448818765    6.21149784429375
C         4.87069059434595    4.52182559897192    5.78549780936412
C         5.60634480479086    3.54461566248418    6.69660421979594
H         5.25074565197781    3.69959494175993    7.72017848744295
C         5.21380621771793    2.13954662513129    6.22913327834015
H         5.50105104183121    2.00855088225351    5.18803670065067
H         4.13853052185783    1.99431619385661    6.31279142851819
H         5.71672213687471    1.38555808269157    6.83184745864866
C         7.11548931053082    3.74330922748149    6.61650837631360
H         7.63104445357966    2.95617853179442    7.16297803793052
H         7.40175158780583    4.70415990389770    7.03978012888155
H         7.42948300694710    3.71598853092878    5.57573519968163
O         4.14198033607479    3.91264291460205    2.07725697711843
O         4.26485282411760    4.86724865461663    0.09189172801122
C         4.39907890095581    3.87968191840124    0.85306943670628
C         4.94838888803331    2.57080824028181    0.28900165147721
H         4.86258373724897    2.61341052113157   -0.80126082063589
C         4.17996552830405    1.37604989361234    0.84285560614167
H         4.64339777133840    0.44677864982927    0.51869067813437
H         3.14767957400285    1.38675775369394    0.49871741748278
H         4.18374556728527    1.41361411507657    1.92939975431780
C         6.42484509232862    2.50971837488524    0.68781671092708
H         6.97096298723482    3.34997469278098    0.26402940640926
H         6.87357877517979    1.58531535439628    0.32978212642021
H         6.51217987402558    2.55009171934880    1.77120424298423
C         7.83491145647721    7.13120990416092    4.93800177731648
H         7.69012022635765    7.91438718947072    5.68087162856360
H         8.78602104804047    6.64358106302228    5.13689524943459
H         7.04582746686274    6.39079789935626    5.04171657774491
C         7.82604497438731    7.70851359761545    3.52913529519106
H         7.90816475781843    6.89745018549336    2.80648065141753
H         8.67865874352004    8.37665446236796    3.39044162291130
C         6.54260708586878    8.50494931167416    3.24355407090568
H         6.49388422985462    9.36770655785489    3.90862006153201
H         6.57286603559709    8.84952819022187    2.20662144545292
C         5.32674271629836    7.65176519079732    3.42570826596571
N         5.04316892611421    6.68111631503165    2.64355947710100
O         5.85690632350801    6.48547520868308    1.55908577440064
H         5.33700990619493    5.92718673257657    0.91763705731299
C         4.32686066325038    7.97439767533454    4.50894533602335
H         4.84233451897116    8.10137960591463    5.47034330301608
O         3.32882394805255    6.97659250630698    4.61625326318324
H         3.52554222089855    6.30073645208730    5.36857988753827
C         3.61026987381347    9.28444551845837    4.12376438676282
H         4.34013545573359   10.07101844043890    3.93256393140638
H         3.05937775842025    9.09175359920379    3.20040863771030
C         2.63900697579677    9.72899964906261    5.21476772188323
H         1.94533202409317    8.91325311909582    5.42356220047995
H         3.19373463021356    9.94009331117538    6.13181774546825
C         1.86158264190150   10.96892275052774    4.79272003971601
H         2.53773345765940   11.79991335460771    4.60348652684380
H         1.16414472822995   11.26463177205074    5.57241899054952
H         1.29811653333460   10.77507890191335    3.88273206547274
C        -0.56675632837953    1.27373532446158    2.28376138219928
H        -0.82832225468148    1.09993284904861    3.32464621053951
H        -0.22338907634280    0.33569313351829    1.85496203586865
H        -1.46203057090469    1.58799099915650    1.75109181288044
C         0.52289351654260    2.33117171927547    2.17820147104787
H         0.79247117989742    2.48036281460907    1.13019468970004
H         1.41368575808027    1.99884341995386    2.71194160437792
C         0.06081763432343    3.66963220338834    2.77495874157617
H        -0.81990080146575    4.02736580536721    2.24059638166223
H        -0.18792691741396    3.51569324425328    3.82717596523281
C         1.17445619933801    4.66292196993817    2.67676291926961
N         2.13425605260073    4.69012597932609    3.51962494466670
O         2.08552810855565    3.82592111368287    4.57345821950567
H         2.70242892686218    4.20966437735929    5.27940458347733
C         1.12800037861748    5.71183694944144    1.58598606554846
H         0.72298731559918    5.26418721705505    0.66713174632879
O         2.37265151407060    6.32109135416580    1.33057265487842
H         2.92487616960181    5.79041088293392    0.69705772824565
C         0.18358041884253    6.82604013979530    2.08071411725654
H        -0.76286515724472    6.39436162432074    2.40789324898457
H         0.66722015884590    7.29439917314927    2.94053148080177
C        -0.06368388164455    7.87404034541515    0.99906672787808
H        -0.56219837989672    7.40744368778432    0.14636731228411
H         0.89846347109880    8.25714951521482    0.65723974991490
C        -0.91882261742071    9.01961090015784    1.52454225631298
H        -1.89015118413229    8.65477570348590    1.85180804351750
H        -1.07590172228906    9.76485008230841    0.74879569064445
H        -0.43389420903333    9.50087153854950    2.37074985782288

