71
CSD_code = UJIJED | q = 0 | S = 0 | Stoichiometry = C20H40N2NiO8 | MND = 6
Ni        2.86247005535206    5.05287899996437    3.51357508067333
O         4.28816072831365    4.05556853300697    4.96918980399435
O         2.80895992626837    4.23283823756612    6.59267702207936
C         3.93428905871994    3.85765959193898    6.14337772030595
C         4.88215940497301    3.14486094660485    7.08755446194078
H         4.60472697504341    2.09305407661579    7.11622294357557
H         4.78606658094094    3.55421029055857    8.08967979302277
H         5.90249593500507    3.23137414000633    6.72682140002803
O         3.31170921433878    3.34386624859774    2.19585730660555
O         3.69058577882026    4.64421286485930    0.45776952923764
C         3.62986043396299    3.50545743134276    1.00305463192399
C         3.95257039860600    2.28247734935226    0.16713164809948
H         5.03473116376966    2.19757882776601    0.09253608969112
H         3.54802710476896    2.40245688580203   -0.83449015968113
H         3.55651773983368    1.39088507103640    0.64316710223070
C         8.34049517816152    7.35810752317932    4.81679983641948
H         8.66318994776594    7.54981589465306    3.79634651481650
H         9.06054478547704    6.69185105432720    5.28486345574357
H         8.34005032428124    8.30050604279888    5.36104778412697
C         6.95498582891075    6.72806809535928    4.82782700536485
H         6.97056014103417    5.78513837225991    4.28070434858386
H         6.65327890809169    6.51414150516702    5.85527637592495
C         5.91754870456174    7.65819656616895    4.17862029451066
H         5.85891173761960    8.59350479322053    4.73518057111787
H         6.22812020505580    7.86415464696854    3.15210017362967
C         4.59106097380742    6.96986016808558    4.15856909439361
N         4.29196849902420    6.10371037665800    3.26693914392964
O         5.18440955801466    5.89475162130426    2.25806772110532
H         4.67555822131176    5.44022210341624    1.51416062247133
C         3.56130257339348    7.30070100074206    5.21206010134140
H         4.03976925130302    7.26656038876671    6.20115552787535
O         2.45437106168902    6.41601144180831    5.17778092633120
H         2.55304259445380    5.68182050796638    5.85977518605215
C         3.01262691069455    8.72264190184518    4.96947715589732
H         2.18639283489562    8.86509745555197    5.66850015152236
H         3.77966676582683    9.46454405226066    5.19436756500501
C         2.50191238859712    8.89682273663433    3.53969444857108
H         1.90669708112048    8.02298808964598    3.27060258278950
H         3.34866719555249    8.94567090381881    2.85223510670339
C         1.65966428051134   10.15735690262909    3.39476946786175
H         0.79108225397721   10.11546934253956    4.04860509992997
H         1.31373227852305   10.26672979869376    2.37012229927254
H         2.24031526587841   11.03976564029119    3.65656131403719
C        -1.17335874331355    0.74605274307603    2.17962208885252
H        -1.51559337390543    0.53703662668871    3.19024363338681
H        -0.77198390192907   -0.17126970879205    1.75667057736420
H        -2.02939378563280    1.05405014253384    1.58242625785013
C        -0.10585842497493    1.83085323572022    2.19264799622197
H         0.25105173508586    2.01224547166139    1.17659636779302
H         0.74467009897446    1.50826860744295    2.79367324858242
C        -0.65421493892203    3.14259762518745    2.77762098936678
H        -1.48227845651645    3.50256584165925    2.16647908888079
H        -1.00650664751940    2.95205493256011    3.79357502435390
C         0.44860284437901    4.15068547150019    2.82252347767285
N         1.33617090841317    4.14138352376904    3.74295007939651
O         1.19636943677460    3.24285364783136    4.75594878905647
H         1.78090127835206    3.57267454305612    5.51566531911916
C         0.51590623461143    5.23262412029183    1.76941174220872
H         0.30708628203946    4.79544733323414    0.78301386583381
O         1.76186894071237    5.90151079208021    1.75572056279461
H         2.39876826049466    5.48318309728198    1.10525367003357
C        -0.55789400479067    6.28827117788702    2.09997918299290
H        -0.28628696995104    6.74188287078182    3.05528169723366
H        -1.53025454343843    5.80802112894799    2.21138740957633
C        -0.62607973421692    7.36747314200841    1.02206516047007
H         0.37076998265088    7.78793568297475    0.88410853880024
H        -0.93575701887837    6.91686009320652    0.07631162632259
C        -1.60085016091739    8.47337013671596    1.40440703268308
H        -2.60338618114976    8.07256031523605    1.53838965991412
H        -1.63670324298371    9.23314386191705    0.62766447034665
H        -1.29392212168778    8.94647512176562    2.33392819384566

