89
CSD_code = UJIKEE | q = 0 | S = 0 | Stoichiometry = C48H30Cl2HgN6O2 | MND = 6
Cl        6.81576390971112   11.22293200184898    2.40696940082214
N         3.84149637905077   13.70595578198319    9.23867763022083
N         3.71333894823762   13.10180830969310    8.13905457117015
C        11.54330709128545    7.52562319674464    7.46489471757759
H        11.37113355893465    7.08319344885951    8.43533897143969
C        10.58396585782396    8.42957001368934    6.97195058579822
H         9.70851507949019    8.65169232077274    7.56293447461866
C        12.68016921467388    7.19148159659929    6.76989474647528
H        13.39290556912781    6.49788674144720    7.19108251149139
N         5.86339780829468   10.98266087644606    9.57890213147122
C         3.15788764239224   13.20617857362874   10.32454808925459
C         2.72767206044694   11.87692894443118   10.42335557484456
H         2.91850968305719   11.20944115220560    9.59661994856858
C         2.95457387493734   14.08032699991094   11.39752898045215
H         3.29223010504762   15.10100984822022   11.30472839306234
C         5.12825883651852   10.27644011298017   12.18161238183618
H         5.15249585804095    9.45524605123891   11.48032357880007
C         5.61654569727113   12.59569439537244   12.66829830115236
H         5.98997334464906   13.55140257145615   12.33516185968180
C         5.61071019922738   11.52544318388725   11.76685118785157
C         1.88705598006810   12.31939456620471   12.62519802318745
H         1.39410476717907   11.97347920913588   13.52146966296669
C         2.31250494141513   13.63670797179072   12.53414198026103
H         2.14547463751809   14.31438187368141   13.35824063591189
C         4.65065565625497   11.18299230190023   14.34902931315321
H         4.28060706193927   11.04945031780312   15.35469533843264
C         2.10011293417624   11.44310109093682   11.57100868840216
H         1.77361513534291   10.41658980450017   11.65100660524107
C         4.65824287952084   10.11246403683772   13.46642412414388
H         4.29441253911474    9.14709730796252   13.78748776104340
C         5.12697768445156   12.42198986110293   13.94507851149660
H         5.12150301835660   13.25173284037363   14.63622363384475
N         6.19256200845310   11.73363506731594   10.54083111288742
Hg        8.60707617275682   12.38037076705605    3.25276927316387
Cl       10.04758697164164   13.47815093152190    4.66139207161375
O        10.49881022129476   10.77961015182781    2.65863334627881
O         8.40618002903457   14.05030162757326    1.34302838909788
C         6.48011238521771   14.77418554584195    2.62996420405153
C         6.77231839060839   15.56782255803767    0.40428854314852
C         5.82384642908736   13.85683950385624    7.18860635435545
H         6.23428295990987   13.98266164707417    8.17961793346242
C         7.11570047960198   15.90251510247485   -0.88294267101381
H         8.00382365881032   15.50189007209288   -1.34641075690514
N         8.92871125487703   10.53305750777888    5.02154044932324
C        10.04804860840118    9.93202288097805    4.88895048100445
C         7.38751686786055   14.70835658361044    1.42416148415308
C         4.48503908321572   13.43470069380223    7.07104210144006
N         6.79910153651866   14.13140715014511    3.68833587898301
C         6.01662049731953   13.93256546568923    4.79161297257327
C        10.79286392208049    9.00669913294279    5.74145795788758
C        11.95275499246581    8.63960227466612    5.01751506127096
C         8.19067073712307   10.64938823582890    6.16501701074745
C        12.02723092524518    9.25531039417570    3.74999901766808
C         4.76857693222338   17.01102379956651    0.29510381953690
C        10.82583415905342   10.08716467842998    3.60132252110126
C         4.29682602632833   16.18677698340495    2.97994901187554
H         4.08516106705803   15.91063885188787    4.00161942987978
C         6.27832764047428   16.78691344126298   -1.58596875694290
H         6.54347905212264   17.04840424109941   -2.59995528714190
C         5.37839640181013   15.67688052332151    2.30066453581480
C         3.65531471830682   17.49459832394122    1.01874671883321
H         2.97318805234614   18.18642422014193    0.54683455372960
C         6.03746773773181   10.57137738355957    7.23767856011805
H         4.97436866239594   10.39040792479531    7.20678947284829
C         6.62068011863652   10.98484682383906    8.44742589822182
C        14.09223878102670    8.11179838327817    3.40469037062157
H        14.94147525331693    7.90798887608550    2.76883601117658
C         6.80215255913053   10.44435197397880    6.10667523144845
H         6.36301020923301   10.15506210172772    5.16384150381584
C         4.68977410529561   13.48387960293147    4.67086854469256
H         4.28962725687721   13.30326767368514    3.68427357909178
C        14.01517195108756    7.50153737917849    4.63444948430728
H        14.79520909000793    6.82564770423363    4.95441035544979
C         6.58559167486842   14.06709745673981    6.06935809203297
H         7.61737335782910   14.37631287467033    6.14498464414110
C         5.60277256892089   16.11542417018717    0.97322906460773
C         8.00222205087997   11.25830257721695    8.48241401767682
H         8.42815403516879   11.58813119951269    9.41921130999957
C         3.95189196654918   13.20630249223210    5.79105551024256
H         2.93727155272813   12.84801074160967    5.70831360658508
C        13.10219575432796    8.99349331643628    2.93587707550661
H        13.18874617666915    9.44861706842795    1.96154622484358
C         5.14513842033687   17.33098920126184   -1.02879957178029
H         4.53249575863801   18.01225829159314   -1.60152839527692
C         3.44919234201104   17.09309653160518    2.31614116870007
H         2.59948859390680   17.48196676970203    2.85821832114139
C        12.91998616034723    7.74706306713559    5.49297446939751
C         8.77781183191598   11.07354217358998    7.37060556080775
H         9.83321189537116   11.30261057972595    7.38170081299538

