37
CSD_code = UJINOQ | q = 0 | S = 0 | Stoichiometry = C14H16CrO6 | MND = 9
Cr        5.56328007388061   10.32734286544922    2.44380468031139
O         4.36521924704642   11.51202309896649   -0.00646616216125
O         3.66805484270342   12.31693720615741    3.57789440053163
O         7.26267053695199   12.76965782031702    2.30323302480058
O         4.05067745553021    8.02805613389241   -0.15051465491541
O         3.27684307921405    6.47839348021575    1.41504573669281
O         3.15366370906506    9.34341727351629    5.21566666893400
C         4.85637679537991   11.02508532464211    0.91664513679174
C         4.41853818876979   11.53359492487843    3.16777494368328
C         6.64554542650413   11.79652485724074    2.36601696611712
C         4.59259823616456    8.57257140909032    3.43301382784565
C         5.70846736797301    8.92578391289243    4.22879857297609
C         6.98224884966581    9.02027654352626    3.68232487245360
C         7.18353185209289    8.70647199015963    2.32082500502759
C         6.10229503288147    8.32455255439677    1.53773623004813
C         4.79347195676490    8.27165224822277    2.07559103442984
C         3.25753750763245    8.43382998808323    4.14061050493061
C         3.66184078131318    7.81658492342319    1.17494405787885
C         2.97991868327225    8.02101403879149   -1.07247583890210
C         4.30267474375993    5.52501109202620    1.21531835151107
C         3.12179254476263    7.02007086777460    4.71341035756097
H         5.54742648899855    9.08728097523197    5.28840045837693
H         7.83164790208799    9.24841900946918    4.31526248765529
H         8.18566160173007    8.69706771275705    1.90976787316581
H         6.24708733416808    8.02729957466045    0.50772937708806
H         2.43367392647902    8.60275907248014    3.43148957127944
H         2.74241714311587    8.38751375232613    1.39001884720892
H         2.29834163051159    8.85410511353257   -0.87325371266728
H         2.42608109508076    7.07891262234582   -1.02665423422455
H         3.42873312309672    8.14201811819252   -2.05550394757397
H         4.75806989865167    5.63994457719061    0.22805665182412
H         5.07897977794746    5.60856262215147    1.98438177214779
H         3.82300811227191    4.55133613536899    1.28650444159885
H         3.96137159599489    6.80211079983876    5.36933583841244
H         3.08741122208663    6.29760305372870    3.90337632246316
H         2.20508637420893    6.95704650358360    5.29235116499794
H         3.08395586224136   10.24406780347949    4.87623937170087

