128
CSD_code = UJITIR | q = 0 | S = 0 | Stoichiometry = C38H82CuO4P3 | MND = 4
C         6.11354178170086    8.82717715047018   -0.31818992554628
C         7.21206032014776    9.18004024128628    0.72211569537422
C         7.47517995917712   13.49091550774750    1.75503486186602
H         7.57892480308547   14.57613858120288    1.66642689615295
H         7.53456289682970   13.05080712808653    0.75528266967991
C         6.13674032896780   13.10880070414515    2.38318754798572
H         6.20528076487696   12.07326877074596    2.73059215476820
H         5.93200195214652   13.74915233651324    3.24604139742298
C         4.98755391331580   13.21430801808429    1.38414182648337
H         4.99075308526556   14.20769449974514    0.92611227512613
H         5.14052468062186   12.47553008392695    0.59557677796141
C         3.64002168686240   12.96706448371856    2.05064980847605
H         2.83723688843257   13.02581229359826    1.31969354721597
H         3.45176643238983   13.70598157242392    2.82921460869635
H         3.61955359545673   11.97733711133649    2.50040403251289
C         8.73600407126047   13.59712617202807    4.32983802144555
H         8.77399557543063   14.68247580024258    4.21221322771533
H         7.75401000234470   13.33140596426914    4.73007541777172
C         9.81830767552563   13.09477069731880    5.27955494782330
H        10.80078381340907   13.41234374743151    4.92264805802552
H         9.80095530980393   11.99976594512328    5.27102824631681
C         9.61536405886121   13.59054095518557    6.70921577567229
H         9.64304413594788   14.68269919391953    6.72312674077828
H         8.62669770588097   13.28344736760322    7.05989130191507
C        10.67916671030664   13.04287163564317    7.65318744221763
H        10.49876506937404   13.37829304002902    8.67171974542670
H        11.66836306579408   13.38225344524976    7.35328280160941
H        10.67383291058608   11.95474966419488    7.64205286274896
C        10.34399550662726   13.55674808548512    1.90714931453917
H        11.22049229584205   13.03319470410552    2.29609276943915
H        10.26323472813532   13.31219018174876    0.84218341105811
C        10.51553358109599   15.06286960826088    2.08593702850474
H        10.77615312245888   15.28481952897775    3.12253010638457
H         9.57758300486264   15.57323344745906    1.85826251002023
C        11.60519105752485   15.62938942540575    1.17255022293844
H        11.36154966803024   15.39869401699842    0.13293739675457
H        11.61132867737257   16.71721274301508    1.27592773678059
C        12.99632375769100   15.09648298180255    1.49678982066878
H        13.74463145883347   15.60759921013150    0.89559754307444
H        13.06756860178027   14.03220472833347    1.28675130128619
H        13.23262175801370   15.25940517167216    2.54655860350539
C         6.01999388830685    8.41006077253571    3.82264798269548
H         6.46086110466143    7.74003491140071    3.07788308931048
H         5.67284542268612    7.79496814213790    4.65955327879551
C         4.86325795565317    9.17997732667549    3.19181947317397
H         5.25518720756568    9.86343336280054    2.43630192129035
H         4.35356842131247    9.77790732364291    3.95235511464475
C         3.85547168497826    8.24021478594904    2.53233477103923
H         4.37986365125982    7.58514204606425    1.83254023433952
H         3.39283607091197    7.60664555635735    3.29511076493190
C         2.78167781851250    9.01004020658538    1.77399899906511
H         2.05957915264413    8.32485514157508    1.33631979982957
H         3.23551243153807    9.58716410810027    0.97173797412243
H         2.25151932707693    9.69015077705465    2.43847342411214
C         6.62479038471046   10.56464739185564    5.66868134523602
H         7.43227633070130   11.17024969523296    6.09097799006422
H         5.96447491507188   11.24972884836252    5.12700420812041
C         5.85190091577035    9.87948095989579    6.79038336768201
H         6.51770201246558    9.23147921495724    7.36315018726417
H         5.05521049811990    9.26093697316836    6.37413701819680
C         5.23419923350585   10.90887213010909    7.73637538343871
H         6.02559660232663   11.53305621875560    8.15914989570647
H         4.56397975415560   11.56199282556267    7.17241590163964
C         4.45831415530840   10.24235889675429    8.86586930959560
H         4.02483369129951   10.99002379523002    9.52575038688986
H         5.11323206873061    9.60362939683683    9.45484862427927
H         3.65289686562863    9.63019017224190    8.46597126520081
C         8.34554111752405    8.24832330197399    5.36762045212778
H         7.68637718546980    7.75374214477700    6.08555571257463
H         8.68623371810084    7.49579360104351    4.65006487179954
C         9.54445161900630    8.87861344484899    6.06598359255151
H        10.11762690086200    9.44731105121848    5.32802608909784
H         9.19749909007990    9.57806007035100    6.83042894478589
C        10.44918039410273    7.83634102920380    6.71899248792042
H         9.86488693165299    7.23750100161655    7.42202362309322
H        10.83469368071138    7.15986450091403    5.95259493731737
C        11.61591759356325    8.48528395006528    7.45321433932645
H        12.26601493472634    7.72889710473761    7.88643704612953
H        11.25498846712396    9.12558503219261    8.25548152891942
H        12.20175955332937    9.09467881924210    6.76898459141818
C        10.65453276769276    7.46830864137359    2.21610933830351
H        10.68743825332439    7.51469903557479    3.30794305398191
H         9.74344468745676    6.93743592839498    1.93210968228335
C        11.88102167012901    6.73252537876379    1.68469441309897
H        12.79139441497518    7.17212475620817    2.09745875523522
H        11.92244331649459    6.82442560057567    0.59803979736854
C        11.85348912733657    5.24358349845657    2.03912783559772
H        10.94006467864033    4.79540384583358    1.64220951139366
H        12.70043520711328    4.75606752631572    1.54963717475797
C        11.93452795613847    4.98110389403107    3.53875125035747
H        12.02299253405444    3.91414865914716    3.73055655794883
H        11.04306305888872    5.34041460658578    4.04665457385451
H        12.80281913716814    5.47808527575548    3.96739930738367
C        12.04756676254052    9.97914406121924    1.97880192138236
H        12.84935614560455    9.35346625196547    1.58156433075382
H        12.05485204507600   10.91994866479089    1.42088905202001
C        12.26678384239424   10.27273142183053    3.45591101665932
H        12.35899954294044    9.33415748907586    4.00731354634272
H        11.38506987002509   10.80101713359328    3.83575336226339
C        13.51239143038660   11.12256790401234    3.69849877515241
H        13.40540007155936   12.07701617540379    3.17678473504473
H        14.38440878919171   10.61581289171137    3.27767999548073
C        13.74606228958935   11.38395193325639    5.18125572297991
H        14.60270485310143   12.03839658083802    5.32565932976043
H        13.93906821778663   10.45185763702677    5.70824741951570
H        12.87189954622143   11.85390627609672    5.62639345099933
C        10.50900991006123    9.11129431980019   -0.17821071496781
H        11.53960156148283    8.88279505709448   -0.46703596046745
H         9.86113385818822    8.29630166266250   -0.50023952660701
C        10.06587691276377   10.42901930946645   -0.81161826414854
H        10.79665632037536   11.20446832500992   -0.56317806914233
H         9.10894083147677   10.73146676276572   -0.37909751084939
C         9.92828140420480   10.34699618030770   -2.33254290050784
H         9.83167481471453   11.36093601546925   -2.72915890211973
H        10.83856769515663    9.91268047781440   -2.75538703969591
C         8.71865485863688    9.53330617593524   -2.77743953764871
H         8.62738721266549    9.55173369800733   -3.86119929161988
H         7.80613244389874    9.94488040679185   -2.35109548831787
H         8.80364304886559    8.49531014611736   -2.46526143479580
O         7.22504956878009   10.32639112619251    1.19772172249330
O         7.97790972425352    8.22666014806579    0.97882872720894
O         5.25595756002571    9.57443465564251   -0.70422830467245
O         6.25924647776864    7.56246184847004   -0.71277338753255
P         8.87372752795493   12.74236401798105    2.69192021675066
P         7.41149482021202    9.49736849589928    4.36872505234212
P        10.37620627761045    9.21172967709536    1.66521358643720
Cu        8.68142641819234   10.44329808761995    2.64350633547344
H         7.04943737367244    7.24245036124568   -0.20007967394765

