97
CSD_code = UJITOX | q = 0 | S = 0 | Stoichiometry = C31H58CuNO4P2 | MND = 5
C         1.76732050850595   -4.77083401072311   14.12022700385974
C         2.56748461147679   -4.43472957671519   12.84187163851324
C         2.81049372464403   -5.40387850720007   11.87410199747144
H         2.43214626277954   -6.40022171337153   12.04219308284778
C         3.52169419532756   -5.05540935501999   10.73769915821715
H         3.71388640204283   -5.78015329983911    9.96033208070311
C         3.99281800730707   -3.75641705073032   10.61879148488566
H         4.56211681351406   -3.42604252462154    9.76424675935685
C         3.73471379397748   -2.85729358879464   11.64882236996774
C         4.26464846329212   -1.47607142481042   11.56961108370357
C         4.38258607453326   -3.59300958273332   16.25332483785638
H         4.82151804821208   -3.68948636692239   17.24995005170340
H         3.54222622224373   -4.28993749950608   16.18841694705812
C         5.39187588778697   -3.90331542686987   15.14836622818020
H         5.05586291382883   -3.42091091272479   14.22472239202324
H         6.36930303112737   -3.48270252635747   15.39966479700555
C         5.52682824939957   -5.40337836396932   14.89772165688940
H         5.91125737224964   -5.89045871231110   15.79716998260017
H         4.53827681558822   -5.82021301937934   14.69228298348181
C         6.45095971767191   -5.69766836763274   13.72247224035902
H         6.52884472041138   -6.76935887805965   13.55671904767427
H         7.44881057447710   -5.30476539845956   13.90885260441782
H         6.06667708718412   -5.23785820070223   12.81332630364384
C         5.00849309006279   -0.75644157973794   16.37452612165247
H         5.71971699777279   -0.87452070294090   15.55098160169720
H         4.58570771509741    0.24925730639469   16.28780849130246
C         5.72592974758843   -0.90286430893473   17.71148112489004
H         5.01814923082573   -0.76603716485518   18.53088677249256
H         6.15194683783874   -1.90366958371575   17.79834963671470
C         6.84804252138929    0.12519458748866   17.85131238590194
H         7.56042287346625   -0.00337612762077   17.03291656672878
H         6.42963709516285    1.13151008746221   17.77004427060575
C         7.57656638236987   -0.01337413874125   19.18258941569611
H         8.37026781279779    0.72541775943748   19.26353611755107
H         8.01880739912406   -1.00297020665805   19.27440457490595
H         6.88759742757175    0.13116386188954   20.01198098829864
C         2.54051326223681   -1.84876285150864   17.49439016366810
H         1.81208886098569   -2.65189917217006   17.34834512242494
H         3.10040376572782   -2.05149667925801   18.41107115236751
C         1.81930007684051   -0.50660484931535   17.55301371997474
H         1.40213425192586   -0.30853248521321   16.56048110343540
H         2.53157853841244    0.29049869422789   17.78230282698459
C         0.69668807045683   -0.49337619192322   18.58663704290964
H        -0.01500321527157   -1.28683787386782   18.35037026107719
H         1.11094686015339   -0.70257924270106   19.57581933522480
C        -0.02756271169791    0.84739749510187   18.61641139394907
H        -0.81971995894796    0.83979985540422   19.36111243582480
H        -0.47331500480387    1.06325980050327   17.64723965064109
H         0.66370732958841    1.65179384633020   18.86034715688423
C         0.71613286067424   -0.38103556248178   11.53517315257911
H         1.66946888335355    0.09665157316636   11.28790133000997
H         0.75260672948473   -1.39281928171416   11.11596736582362
C        -0.43650549294495    0.39580971096969   10.90450916787701
H        -0.48200861490612    1.40511279919977   11.31803560128043
H        -1.38324184011142   -0.10053116421870   11.12437859282000
C        -0.26659269503181    0.49175920361249    9.38875625585932
H         0.68101294515128    0.98519312861434    9.16102282831926
H        -0.22359991724491   -0.51466414553542    8.96651970887072
C        -1.41018114903435    1.26420764747005    8.74236137035224
H        -1.27211792803230    1.31986301386283    7.66550159336501
H        -1.45752248166791    2.27788042613114    9.13465174151083
H        -2.36162182135027    0.77569025184303    8.94123692660644
C        -1.02717758743438   -1.17339992375200   13.69802575200341
H        -1.74393445206356   -0.36631715341380   13.51774173420037
H        -1.21885194615934   -1.98431693112910   12.99040894594653
C        -1.13637058580829   -1.70446856337807   15.12760796402160
H        -0.28268652558560   -2.36029176849421   15.32024618179963
H        -1.08672578943015   -0.86723273224762   15.82821328511143
C        -2.42278399611881   -2.49149029098929   15.37722513970792
H        -2.51381425838770   -2.66550652030160   16.45177153345500
H        -3.28797916198649   -1.89926810806233   15.06461753201108
C        -2.42951093761571   -3.83879454984325   14.66365701206560
H        -3.27727857397848   -4.43727280720812   14.98958900470366
H        -1.51492085421335   -4.38345254863708   14.88517530959531
H        -2.50173395499697   -3.71688103259296   13.58522081434372
C         0.69461616667201    1.11413562375135   14.03090731989460
H         0.04767675003282    1.76250484720347   13.43640417958549
H         0.28148481251417    1.06172163870866   15.04181978808918
C         2.12353940666353    1.64635676065169   14.08948564884154
H         2.47210462039037    1.86521938682696   13.07740092606083
H         2.76404476560260    0.85719042348815   14.50098467577308
C         2.24516214032286    2.90195669698706   14.94888615493767
H         1.59734084181195    3.68413693766910   14.54615404378162
H         1.90295976582765    2.67663983470824   15.96132870101642
C         3.68053341474602    3.41099832745743   15.00107760671115
H         3.75115203229012    4.29586065028768   15.62881574383604
H         4.03168189798237    3.67065456137220   14.00469339559810
H         4.34063270751990    2.64761835431228   15.40787501186863
N         3.02406702411663   -3.19585577273268   12.72615100567436
O         1.43696111189137   -3.78115827403525   14.82581033206023
O         1.53740100169632   -5.95241671856034   14.33308632796706
O         4.21592866867537   -0.82421969232429   12.73875813301007
O         4.70639337220664   -0.97006618301095   10.56607200023435
P         3.62083924687986   -1.93423459702353   16.00467007796994
P         0.69836357723479   -0.61531997420478   13.37240442637972
Cu        2.25348671591804   -2.02399772153033   14.17627665030548
H         4.55317435015148    0.08021439171380   12.63527583994837

