108
CSD_code = UJIWOZ | q = 0 | S = 0 | Stoichiometry = C34H68NP2ReSi2 | MND = 7
Re       -0.96484883932439    8.98163347492354    3.18682747024489
P        -2.27881718086116   10.82120877485736    4.23595210122611
P         0.57989758113831    7.05613501932067    2.90413701017901
Si       -2.10653674614998    8.79224065836372    6.48387066575188
Si       -0.97632876271822    6.24598040620149    5.46248934708951
N        -1.40374593199649    7.87708159919671    5.23014723238686
C        -0.84684392974203    9.61499416347240    7.67422830155710
C        -3.34011652083172    7.86758550616634    7.60288943225989
C        -3.17055729162846   10.18106232321628    5.66908330644814
C        -3.62567450037156   11.67224888157826    3.25627316371222
C        -4.24079032218557   12.91759699162067    3.88578509072543
C        -5.46582297224591   13.34200031236646    3.07614501930817
C        -5.07722900341974   13.62282808894294    1.62674477539457
C        -4.40930588167337   12.40140887325060    0.99914154328516
C        -3.19648479032818   11.97746797542468    1.82411182039137
C        -1.11200713113820   12.07577667444957    4.97094723775171
C        -1.60397958204652   13.06455705226437    6.02497797753049
C        -0.39852954647904   13.79222616369784    6.62181459920134
C         0.38192477486941   14.52828668826689    5.53687341208312
C         0.83761373818226   13.55570822819781    4.45253543956387
C        -0.36167807241491   12.81661872391353    3.86527055490615
C        -2.44790082460796    5.01087583703325    5.44273965505627
C        -0.05010850261041    5.86037406075257    7.08503708752067
C         0.14548601726378    5.67158445804980    3.99599519409631
C         0.68896799981910    6.19056511073388    1.24835894759703
C         1.84724471136925    5.20585903263452    1.11375343666971
C         1.69198456832907    4.40962400358727   -0.18165199903555
C         1.64571889177893    5.34656139633930   -1.38574071618116
C         0.51323117030363    6.35981986841073   -1.23736254865745
C         0.67760847857420    7.14705683559597    0.06043388055232
C         2.34102022788620    7.41469025593796    3.39375151855789
C         2.89849162934587    8.55189497961768    2.53875429998087
C         4.29135883060365    8.97493614707966    2.99844416866656
C         4.26954198266752    9.37729908603926    4.46723954536459
C         3.78298197861515    8.20497610401915    5.31021098424298
C         2.38273023107891    7.78252613561215    4.87622399609275
C        -3.17664917825522    8.28126785737824    2.75212446433907
C        -2.36896149907606    7.30463669542528    2.25193945905391
C        -0.51622501519902    9.89299194400927    1.62461488918774
C        -0.07449755408273   10.64261537052615    0.44829456926130
H         0.24885262397378    9.68764062755155    3.93942574223174
H        -0.54974270532157    8.89292536510485    8.42809718594832
H        -1.25907128788652   10.47706459601757    8.19098755217096
H         0.05534997277376    9.93275325709801    7.16038972074287
H        -4.13864898814127    7.39158824513200    7.04342568890019
H        -3.79317110109359    8.52925679113838    8.33366631193373
H        -2.81342236055329    7.09156769903853    8.14532664546472
H        -4.11607064001752    9.76488372936485    5.32038070338065
H        -3.39911679181989   10.98625312316300    6.36390043350534
H        -4.41093987472170   10.90283509782929    3.21298551897182
H        -3.51573562804081   13.73225095737775    3.87176077023207
H        -4.52747625753207   12.72582184712302    4.92192986913314
H        -6.21500686325289   12.54693054271974    3.10411577894294
H        -5.91174994734897   14.23498257883396    3.52029078095092
H        -4.38321324289308   14.46613388886551    1.59756214119869
H        -5.96369244784079   13.90069534821247    1.05257506493272
H        -4.10368277735296   12.63063145953563   -0.02375181907887
H        -5.12798942912905   11.57934395946491    0.95552335348202
H        -2.46149384375201   12.78282613674557    1.82415874396120
H        -2.71588824341438   11.09399652814342    1.39572009917367
H        -0.39197173827098   11.40522728055575    5.46087271484865
H        -2.13811209964674   12.55164853443210    6.82563637444627
H        -2.27614776825046   13.80200369352371    5.58686832006205
H        -0.73670333511422   14.50130480646217    7.38136762016128
H         0.25596848564058   13.06626817597768    7.10875011935379
H         1.24565465821631   15.03033912133233    5.97775258262892
H        -0.25643648685474   15.29501717418383    5.09074391698466
H         1.52996899348151   12.82914550373837    4.88079941390296
H         1.36513334718493   14.09715555123679    3.66483057504045
H        -0.03792982972888   12.08377074995094    3.11994951506562
H        -1.02505088217760   13.54069299342519    3.38875164843458
H        -3.04744350215746    5.15255058401374    6.33547040076054
H        -2.10171037671972    3.98055527204758    5.44407039476506
H        -3.10993721377279    5.13367630525905    4.58909577172050
H         0.69087953790534    6.61222976458929    7.33259860805197
H         0.44190729143830    4.89303537456293    7.06048284470138
H        -0.76934103425208    5.83908166376379    7.89620441930918
H         1.06259275228829    5.20782422868654    4.35746721970921
H        -0.39012738304646    4.93102603534214    3.40096399541298
H        -0.24644299780344    5.61313821245821    1.21085580254430
H         1.87084321335363    4.52212267045007    1.96574171256320
H         2.79387241114308    5.74811746780586    1.08250830912210
H         2.52405346049387    3.70975374537214   -0.28777293257362
H         0.76899519533240    3.82579582442035   -0.14157089857270
H         1.51181884973046    4.76654557348182   -2.30135375926626
H         2.59628193481607    5.87935666042776   -1.46375804905487
H        -0.44449971972626    5.83371756191513   -1.22961263327993
H         0.51189638866040    7.04215187249683   -2.08990885109024
H        -0.12965492628206    7.87063233076595    0.19173065334627
H         1.61296472012586    7.70499730775441    0.02085289636215
H         2.93033339622870    6.50215713825782    3.23693911861007
H         2.94972150907259    8.23736638714684    1.49576860389051
H         2.20263635778815    9.39431266871308    2.60410511986971
H         4.99085310461226    8.14524945921334    2.86318474410482
H         4.63985171870165    9.80868182412235    2.38558427517709
H         5.26714585806414    9.68473814843350    4.78872041747319
H         3.59183720680107   10.22285677199708    4.59679063881790
H         3.76951833024494    8.48093034687996    6.36680834140882
H         4.47413832983169    7.36534941582298    5.19427876230572
H         1.68359676095906    8.60338789689776    5.05097316562147
H         2.05757824577301    6.93440752619695    5.47863688753645
H        -3.68634626793784    8.96183768160521    2.07984026162918
H        -3.61096830789741    8.16349294011918    3.73706490836020
H        -2.17562628703191    6.41299345503262    2.83270285291218
H        -2.21967626520926    7.21583516780558    1.18153230073421
H        -0.17876848669681   11.71503789298124    0.61959583372140
H        -0.66345184250524   10.37558459028910   -0.43130889883269
H         0.97535129409795   10.42791511105639    0.24291734169466

