51
CSD_code = UJIZOC | q = 0 | S = 0 | Stoichiometry = C21H26Cl2SiTi | MND = 12
Ti        6.56353169618357    0.66243271903741    4.10053753591440
Cl        8.41025014158993    1.06804205023773    5.22628323872330
Cl        6.16833668051097   -1.23902048499485    5.17547198891041
Si        5.06495683929051    1.75924361619056    1.52004051867530
C         6.56820233660231    0.66065309033839    1.86683229224851
C         6.55314098038739   -0.74112543273885    2.19485086572910
C         7.83666211852127   -1.14646556072424    2.56916679363553
H         8.12391310158982   -2.15295842300255    2.84024011675411
C        10.09753466813379    0.07440134774552    2.64940304300520
H        10.67044968657732   -0.78107780951953    2.97893664558169
C        10.70205548769306    1.28842827163070    2.41861120055024
H        11.76545334173805    1.39958044239192    2.57050071522486
C         9.95878458323335    2.38503552903990    1.96853937658317
H        10.46793860043050    3.31677282909074    1.76725881361836
C         8.59927806246888    2.29752091287201    1.76217145629889
H         8.06198934069957    3.14703198506358    1.36888116542709
C         7.94069221768718    1.08968970007227    2.02378316983216
C         8.71970514509295   -0.04214337687420    2.44614123702938
C         5.31799840084372    3.30337282366486    0.42036881048349
H         6.25959929791164    3.81816991678251    0.56087711424065
H         4.51987206455479    4.01903851765102    0.59293380145735
H         5.26965729462990    3.00872575379068   -0.62285445626986
C         3.58755972554327    0.91536177329766    0.64465561004775
H         3.80869747190131    0.82608677741412   -0.41420096629491
H         2.70090700151987    1.53508937700988    0.73521323776342
H         3.34262798957981   -0.07498905548918    1.00511615315340
C         4.89586508440179    2.08004932038170    3.39313949498048
C         5.85598625655000    2.84762066705204    4.13262199656918
C         5.80966979519356    2.44839343990712    5.49221042965012
C         4.86641878927058    1.39842167113094    5.60747727403405
C         4.31345598747419    1.16065257006658    4.31950011261846
C         6.60904517361228    4.06355516956099    3.68331339062768
H         7.68756404750405    3.90677300426629    3.75710561221733
H         6.35069930578235    4.90614429997751    4.32777626068987
H         6.35264281068134    4.32918315753808    2.66337927018757
C         6.50113357747111    3.13205347762281    6.62975858202099
H         5.86012736614489    3.92404359596851    7.02548191666367
H         7.44107844323162    3.57425601033740    6.30574670774701
H         6.71210418393520    2.42925070978762    7.43412599946278
C         4.41584973967702    0.77305319973650    6.89008287270862
H         3.68817960845695    1.42239764614910    7.38277117408638
H         5.25906548573480    0.63111261928400    7.56591875172485
H         3.95409644140501   -0.19526088981388    6.71048148551140
C         3.13055541521908    0.26424290282318    4.10548017901462
H         2.78324132675303    0.30594378661281    3.07816699396229
H         2.31217398248307    0.58971495347812    4.75107101195151
H         3.36865983466550   -0.76732027981035    4.37412201853587
C         5.41507231304626   -1.69700048114431    1.99135346333393
H         5.22489868231803   -1.82004432805349    0.92331844444818
H         4.50043804252412   -1.35396928755220    2.47029593841869
H         5.67378403154966   -2.66866422528524    2.40974114051137

