82
CSD_code = UJOBOK | q = 0 | S = 0 | Stoichiometry = C33H45ClO2Ti | MND = 8
Ti        6.97882277787366    3.77028615761429    1.34084476271821
Cl        8.77288682427112    2.53983813917170    0.90815362059448
O         6.10680099010811    2.65436142846588    2.27261137720365
O         6.20283764007404    3.65199195595082   -0.17372691274523
C         4.99531139652376    1.97679811083637    2.54186572388910
C         3.76498831130009    2.49765095637645    2.09522367151983
C         2.58337463531706    1.87048112858092    2.44922900464845
C         2.58539835620388    0.72590386368384    3.22847275014795
C         3.80758438023125    0.18449040292133    3.60438915759640
C         5.02098532234128    0.76649938141980    3.27113807403259
C         6.35062953074628    0.08176017413893    3.56806677566897
C         6.18481301978880   -1.18855350024619    4.40954710272121
C         7.30725879478099    1.01777323741014    4.31996402007935
C         6.96611310508331   -0.31428500364521    2.21648119296059
C         1.30248948480679    0.07820347765920    3.65665715014503
C         3.74142354320697    3.70635668979211    1.18945130646579
C         5.14334729523802    3.23901193488851   -0.86851643576517
C         3.87598112652716    3.27759521423293   -0.25376254903639
C         2.74719789983214    2.90659508804554   -0.96370396550686
C         2.83336326259103    2.49708028301969   -2.28218368972932
C         4.08850705158011    2.44272209856415   -2.87320991065441
C         5.25224613572199    2.79606020503938   -2.20785244489177
C         6.61930250646095    2.61958383958029   -2.86009140557820
C         6.52483295251671    2.28376849738728   -4.35319616547517
C         7.46750842114466    3.89188099338340   -2.72470364846587
C         7.31272289033620    1.45014139189053   -2.14584557024161
C         1.61386728693587    2.08931591810045   -3.05356919966030
C         6.43586223097222    5.56576573627760    2.69886629155169
C         7.66365268076960    5.05164866456133    3.19816948512536
C         8.65154502632971    5.21611112978279    2.19732650936328
C         8.03694292273098    5.81365848287233    1.06396258427764
C         6.66872091213591    6.04347857506374    1.37085241106677
C         5.21298474349020    5.76329216435007    3.55362628453461
C         7.89548195374284    4.61689985571714    4.61704997558263
C        10.12353504026242    4.98224772276556    2.37039798714550
C         8.76245555104931    6.29021615091093   -0.16317928653989
C         5.70960042800831    6.80004528231490    0.49091064237838
H         1.64478741503847    2.28572668919908    2.11037957774492
H         3.79224065822025   -0.72861099114152    4.17628366843944
H         5.57984246017130   -1.92957506659277    3.89306381276778
H         7.16411168418026   -1.62762542941787    4.58863219202261
H         5.73347059140969   -0.96481351763751    5.37376935087678
H         7.62221495504886    1.84517293830525    3.68336244823049
H         6.82553278398945    1.41381737755459    5.21287054700664
H         8.19665768031201    0.46829733544039    4.62245680905432
H         7.11163730031081    0.56213097011972    1.58295882001908
H         7.93286464587716   -0.78952611791520    2.36766231618733
H         6.31131012354903   -1.01052722204844    1.69490214671992
H         0.48829509755522    0.35309466768228    2.99064260244472
H         1.03879162705399    0.39927356474797    4.66517704061111
H         1.39938357401506   -1.00516727483609    3.66577699234086
H         4.57478971960020    4.37247251580828    1.43921955598685
H         2.79569123464126    4.23696746134358    1.32065311082385
H         1.78446561270426    2.94252778285786   -0.47410682239620
H         4.13961893966954    2.10622963736464   -3.89542698891989
H         7.52942886281351    2.20630611047585   -4.76387312370017
H         6.02885058640644    1.33046551795744   -4.51717218007871
H         5.99559804851725    3.06276736204575   -4.89781134559436
H         8.38257838584050    3.78894147654557   -3.30458204467565
H         6.91722938867876    4.75486956727836   -3.09774315354547
H         7.74332221920248    4.06322459734052   -1.68483353155207
H         7.39771870809165    1.64664366153348   -1.07682273034621
H         8.31269911271087    1.30126323121393   -2.54726275989509
H         6.74075822931252    0.53390205517715   -2.28249860728205
H         1.55008161511135    1.00219400728705   -3.10758321953673
H         1.65480759685525    2.47199775311118   -4.07143681774200
H         0.71043032125657    2.45888218841861   -2.57494342230293
H         5.46405073685545    6.40063649431825    4.40478142248327
H         4.83800810643713    4.81547023463709    3.94781285346365
H         4.40885721855048    6.24667797483106    3.00167546220953
H         8.75041693473660    3.94609161991321    4.69003300865861
H         7.01884775130481    4.10988611167623    5.02008285276251
H         8.09876394766548    5.48876212714177    5.24542835578999
H        10.31497750700529    4.12224640813920    3.01124213733344
H        10.60691787036030    4.80196021911889    1.41192054448306
H        10.58551287390876    5.86081889349944    2.82888772853975
H         8.06427278701360    6.51753190394879   -0.96717390419710
H         9.47046017337243    5.53916485134864   -0.51809536961513
H         9.32652564931826    7.19870624879887    0.06517687054676
H         5.55951522829141    6.29420966977710   -0.46670516032767
H         4.73815903722581    6.91328723306039    0.96959380607186
H         6.10132856877756    7.79895133169102    0.28690847096221

