76
CSD_code = UJOBUQ | q = 0 | S = 0 | Stoichiometry = C30H40Cl2O2SiTi | MND = 8
Ti        3.90980252982273    3.87347615552433    5.32570026225113
Cl        3.61763140170559    2.65447020476865    3.52386200185888
Cl        4.23903005813033    2.12598451764108    6.61310084488994
Si        3.02777561082271    5.45670080245349    8.69639287961949
O         5.48064980876795    4.39637161252615    5.15553726716487
O         4.36109358830894    6.36268549132631    8.99470195075564
C         6.55472862805663    5.17032930440110    5.31049094381709
C         6.98157876226090    5.43922399362271    6.62717545807996
C         8.02329738855204    6.32327719983605    6.83325449935512
C         8.67082010286281    6.92697229474282    5.76496056513081
C         8.28669103287894    6.59424414323211    4.47427513757254
C         7.24570110379983    5.71579555345135    4.20843750472522
C         6.86873451815819    5.31438539853065    2.78734566111815
C         7.78170754308952    5.95371506129074    1.73501026295581
C         5.42658394499391    5.75178822598286    2.48875117195059
C         6.99631795797781    3.78855203749950    2.65561096056936
C         9.79948156011224    7.88276833616727    6.00781489939034
C         6.31068904723840    4.68805570202230    7.75689023518721
C         5.55238247630620    6.18981197967509    9.64982967389450
C         6.50812101212195    5.33422757106245    9.09588464836068
C         7.69969291350759    5.10011744352260    9.76899803983746
C         7.97748596079394    5.72673952778956   10.96760605382318
C         7.03863592507208    6.61489163226088   11.47284949284737
C         5.82470751951654    6.87222331721231   10.84966781913977
C         4.83279770195530    7.83926616205041   11.48948415816182
C         5.45094749490815    8.65340837101221   12.63467404379898
C         4.32115566839225    8.85222967179224   10.45736335136495
C         3.67664400272420    7.01986089940095   12.07705702926852
C         9.26013560777130    5.48241262697336   11.70417598319861
C         2.46089742067865    5.59600213413333    4.62271083283546
C         3.16301660135997    6.00575493292919    5.77595173585190
C         2.81559592019033    5.13946307693219    6.85107459187451
C         1.86890533737549    4.20879373389079    6.33128460516637
C         1.65081178031938    4.49060928344636    4.97474389753005
C         1.51116235224214    6.54876443098574    9.10544226525517
C         3.05899379366123    3.81448428080696    9.66388022377821
H         8.33819402949483    6.54756385677291    7.84097339407229
H         8.82691923365191    7.04409158127604    3.65806757168332
H         7.49020787523137    5.59852293078844    0.74904090965590
H         8.82110663155576    5.67796302392341    1.89497165903007
H         7.69191898968285    7.03751494444290    1.74078578475216
H         5.20326077682349    5.58951566448205    1.43618164959274
H         5.30033804500586    6.81093413583347    2.71174353160044
H         4.71455820921825    5.17052800216540    3.08000392700439
H         6.70300813816363    3.47660147912818    1.65567078048955
H         6.35823432915544    3.26863784021700    3.37285144797053
H         8.02735016783892    3.48393671005464    2.82710564619552
H         9.59779121809395    8.50026440211590    6.88017825426267
H         9.95793814598078    8.52675686608368    5.14649112462032
H        10.72188584452298    7.33216265896925    6.19422201437791
H         5.24557970698532    4.58545725691804    7.52526438490955
H         6.73340209536158    3.67524949512475    7.77666132082279
H         8.41557776773212    4.41616477203123    9.33606679653743
H         7.27937696877111    7.10999847478828   12.39811953653359
H         4.71920153704624    9.37805528007251   12.98595510058762
H         6.33023977909262    9.19856133703083   12.29963774093467
H         5.71855186962594    8.02417253762589   13.47986585157358
H         3.61992772129198    9.53784936717836   10.92858477532977
H         3.82091127464063    8.36252117819665    9.63214851984906
H         5.15537868099788    9.42951462103508   10.06351660370795
H         2.92336605878966    7.68183681877615   12.49894493503540
H         4.04704705642947    6.36954052138499   12.86750024066921
H         3.21231205234821    6.40267872388694   11.31758255615604
H         9.05900127352836    5.17780833971191   12.72992204254428
H         9.85712506614633    6.39332823331230   11.73924788985179
H         9.84398605491818    4.70538117208361   11.21800885574078
H         2.44099299783018    6.11011587494293    3.66921452332555
H         3.78384959917583    6.89124368668444    5.86428291794981
H         1.33143894356307    3.47691963978157    6.92290955812802
H         0.93271224720320    4.00512758391376    4.32433590597413
H         1.62914294506007    7.55047931907815    8.70260690939341
H         1.32494255987916    6.64421483554570   10.16935317769878
H         0.61927146301052    6.12440980579396    8.65509411294909
H         3.65837290179873    3.90742680012936   10.56598511955080
H         3.48875914976894    3.01270119971613    9.06674088331694
H         2.06391651814813    3.50089191810791    9.96327109324304

