67
CSD_code = UJOBIE | q = 0 | S = 0 | Stoichiometry = C28H35ClO2Ti | MND = 8
Ti        5.71769934930251    4.05578381861928    3.59862511954417
Cl        3.67597762060834    4.89342638344781    3.76342586610602
O         6.34730794159700    4.58157445202978    5.07340050749132
O         6.39962286871029    5.15676721239074    2.51089692819447
C         7.26028326786305    5.20641007503499    5.81329634351501
C         8.55000922549353    5.38631417551007    5.27860630058702
C         9.53290568656582    5.99179101777001    6.04377394847742
C         9.27198201687058    6.42538544833061    7.33152658161582
C         7.99020440571622    6.25702219174761    7.84088899791379
C         6.96825600691922    5.66168100765582    7.11912455652995
C         5.54825581678933    5.56332890198544    7.66513311823594
C         5.45322720508566    5.99556876814543    9.13289613507370
C         5.02045070073079    4.12284689322092    7.57101284379807
C         4.66582071267818    6.50175924754505    6.82797428141070
C        10.33484675929773    7.06692286187317    8.17222534741303
C         8.86453794223580    4.93072788453249    3.87202239806229
C         7.30980409989840    6.08657565374055    2.22890177827594
C         8.56475005315117    6.01872149257442    2.86465642908453
C         9.53711512655137    6.95859991720334    2.56721164117544
C         9.30476962845646    7.96475904761975    1.64568978678534
C         8.06351329410164    8.02017780628556    1.02560394014476
C         7.05149436155245    7.11036835318096    1.28917027338774
C         5.66885979955817    7.24653232785262    0.66038144520227
C         5.63134568011250    8.30271407885828   -0.45061258957867
C         5.20149653011920    5.91584876584000    0.04863523716741
C         4.70281048303558    7.68050136945738    1.77297442703908
C        10.35312223800175    8.99186601723307    1.33925791705554
C         6.59245681677182    1.92442299105148    3.88332672031500
C         5.22729537570351    1.83400667902206    4.22765014707476
C         4.46918414596831    2.08520746051203    3.06715335375056
C         5.35614896444878    2.34672620937171    2.00580648577469
C         6.67245685505779    2.24315312183578    2.50374735019294
H        10.52056256344165    6.12089012378219    5.62459734016762
H         7.80422308268096    6.61099651522561    8.84136453680328
H         4.42484455635430    5.88718452040257    9.47101810026784
H         6.08461259845749    5.37540168247944    9.76542004483572
H         5.73286360785012    7.03845516483649    9.25866811674235
H         4.08296349932375    4.03892804815976    8.11715222125578
H         4.83151293167008    3.83962484934741    6.53397542173797
H         5.73779892722512    3.42791204315440    8.00559707593561
H         3.62937242582274    6.42991066082681    7.15018096301301
H         4.99743541058762    7.53206201366325    6.94546035505799
H         4.71471994018154    6.24315651195996    5.76897120140671
H        10.02036082671734    8.05946878719535    8.49157487985440
H        10.52061941466279    6.47368009487378    9.06696159930085
H        11.26561912656657    7.15912588990282    7.61887215538986
H         9.92670343307056    4.68175079419274    3.81261015962230
H         8.27421508034876    4.03392556235949    3.63392251178203
H        10.49523710253262    6.89833036047533    3.06326374233181
H         7.89903887113705    8.81130800719597    0.31303667027200
H         4.63153999373407    8.33490942253266   -0.87838602081461
H         5.85490916601451    9.29417814981022   -0.06514391274910
H         6.33292289077656    8.05948208730456   -1.24560780578179
H         4.31594560352868    6.08308061561735   -0.56143425778391
H         5.98207260701425    5.49453647634462   -0.58347610476239
H         4.94208260415191    5.19415902368828    0.82523003258787
H         3.68715219205419    7.74044220284148    1.38800547588401
H         4.71622619814903    6.96823484667953    2.59955042585713
H         4.98891073249178    8.65790001297489    2.15784370628293
H        10.32755532055585    9.27031787143098    0.28807738731828
H        10.17654449498133    9.89202432489635    1.92885795761874
H        11.34506422781548    8.61868826008276    1.58136138030300
H         7.42628651053080    1.66632187859515    4.52703965201756
H         4.83433534452012    1.50437868699323    5.18212836721501
H         3.39205999468735    2.00674912977287    2.98673053553253
H         5.08136213947322    2.47866738841645    0.96606495674360
H         7.57691560197572    2.26672636057996    1.90602751184797

