34
CSD_code = UJOFIK | q = 0 | S = 0 | Stoichiometry = C15H10ClN4O3Re | MND = 6
Re        6.53112562942810    6.86038482499853    3.25913944859494
Cl        8.35277713948536    6.57328444175423    1.70717110517260
N         8.96214591964400    8.16455610538539    4.95536619652885
N         8.91217810108687    6.00124460633804    4.76498155816217
N         7.19872093716799    4.82128532967354    3.79012845719883
N         9.11945341946733    3.69787191161665    4.61402926990980
C         8.20722609483224    7.15576556490785    4.51489069463628
C        10.16091709786308    7.69319568025241    5.46456297407889
C        11.25303530412046    8.34779538149789    6.00870871482155
H        11.28338240518231    9.42215818049086    6.09454705976392
C        12.31088384761417    7.56153315830381    6.43019220263964
H        13.18120953993840    8.03513720726953    6.85767890827389
C        12.28162684705744    6.17475078900197    6.31138791626227
H        13.13083164624515    5.60121993719372    6.64926903071305
C        11.19425944084655    5.51258683758168    5.76746179305428
H        11.16610468149633    4.44119836607898    5.66566338285535
C        10.13440925176699    6.29539700984778    5.34695033838059
C         8.40874581385166    4.78578506030603    4.37775537782683
C         6.69370512744139    3.65491462996134    3.40508435745839
H         5.71835274763036    3.68008168122050    2.93598132888862
C         7.37621911051640    2.46385593668970    3.59314796080202
H         6.96138304962490    1.52581930718459    3.26700361436092
C         5.14254784888182    6.92762029764252    4.61415116941332
O         4.33749447244870    6.93978518320262    5.43701539075118
C         5.38905870649339    6.21502842870608    1.80210634016383
O         4.86816374672306    5.78432739631026    0.88403658632665
C         6.24488975142167    8.69155351018661    2.67078557109988
O         6.14193826358041    9.75985615402834    2.26322957286268
C         8.61307820719867    2.54431486686880    4.21583873960586
H         9.22373623742243    1.67342610139716    4.40930210118558
C         8.60996809259971    9.55721626737351    4.91830545752619
H         7.55153151886048    9.64791265104144    4.67793239649251
H         9.19580194435046   10.07630036902997    4.15745837063219
H         8.80359805773551   10.00983682661637    5.89143661355974

