97
CSD_code = UJOGAB | q = 0 | S = 0 | Stoichiometry = C32H53BN6NiO4 | MND = 5
Ni        2.76680054046818    2.66843242749751    0.80003225159259
O         1.57602637662446    1.37572754010081    1.58746548412622
O         1.31417664808025    3.47670874196548   -0.15669294110773
O        -0.35883186495195    0.39566840652512    2.15706225051275
O        -0.79080731184794    3.91316316744537   -0.79538626467892
N         3.99547246809475    3.70912620955626   -0.17152784210693
N         4.90795623914429    4.43753771998201    0.48124873497685
N         4.30202207742306    1.90245052451257    1.60496951899375
N         5.13642697386115    2.73816058360705    2.24588986625330
N         2.67880075018076    4.22065192012913    2.52418202356499
N         3.86276495896267    4.82924980656575    2.71799658605041
C         0.32993132106317    1.32503039077610    1.45228246355974
C        -0.46928140858389    2.13577499113678    0.64583307739762
C         0.09992695244278    3.17255082165539   -0.09045647074497
C         0.39364513464246   -0.42685572369937    3.02815816172919
H        -0.32828948090883   -0.91500398335281    3.67949412698997
H         1.09404669425423    0.17240141138154    3.61440141066236
H         0.95218876050761   -1.17582545743163    2.46168571241775
C        -0.27746644331170    5.00751751696492   -1.53064538229015
H         0.14380788357887    4.66937246967648   -2.48187418249716
H         0.49853294968635    5.52767819061974   -0.96440602970371
H        -1.12052310014926    5.66950330389339   -1.71847158595632
C         4.11338876110927    3.94202356965803   -1.47842520132870
C         5.13542510285000    4.87238073717111   -1.66537744975177
C         5.61484179665914    5.16678818728022   -0.39915769712125
C         3.27861352466275    3.23523086127659   -2.50405485758267
C         3.70782811084905    3.58873385404328   -3.92539974737888
H         4.74311378715051    3.30048487063672   -4.09477705520892
H         3.60801115917004    4.65619481581990   -4.10637832675556
H         3.08405569241912    3.06061374285902   -4.64329754614019
C         3.34948833534301    1.72248027790402   -2.27262001219370
H         3.04621422761006    1.49024379977303   -1.24046171278767
H         4.36505086313133    1.36416291262656   -2.43234661891162
H         2.68275174037189    1.20050693281326   -2.95528409449468
C         6.74191077857436    6.07648054404932   -0.02337515846478
C         6.80002211403897    7.29368402889226   -0.94588145468926
H         7.56005511706801    7.98882217146523   -0.59690639056184
H         5.84185116594360    7.80740859812136   -0.96092624425557
H         7.05013027364835    6.99706276531267   -1.96100600282492
C         8.06099027838438    5.29812382002175   -0.07214265863539
H         8.02197391355520    4.44723246754618    0.60359926033031
H         8.88919033578685    5.93995147074870    0.21904604189460
H         8.24345859176947    4.93047365711505   -1.07935746297464
C         4.66749194287583    0.65165027537007    1.87842860117787
C         5.76019892142618    0.68613281815871    2.74507278888692
C         6.02711862040534    2.02644876838856    2.96066016262168
C         4.04876817489097   -0.55115343196982    1.23980464598645
C         3.87352047866048   -1.68416877759567    2.25024715539910
H         3.33632156638903   -1.33494828607356    3.12821414475671
H         4.84171879536515   -2.06433985899946    2.56817496510711
H         3.31810798606750   -2.50595214364336    1.80300078275432
C         4.93047906682775   -1.00877013229543    0.07314386599735
H         4.47019110322933   -1.84973917755179   -0.44047867074373
H         5.90826890959509   -1.31780040612360    0.43749961620593
H         5.06799968828689   -0.19871158362605   -0.63799743415452
C         7.04983374475183    2.64408867243525    3.86124913426460
C         6.35728545169385    3.16367646007923    5.12591909027903
H         7.07633019983804    3.65962252058339    5.77397109236579
H         5.90962068867286    2.33646383421372    5.67235410196411
H         5.57335837273909    3.86867288790858    4.86414587646977
C         8.15221589719568    1.65061952378737    4.22235217956149
H         7.75105895795217    0.83010067594931    4.81165591262324
H         8.92034923702039    2.14765193825460    4.81027204903290
H         8.61280169417520    1.24456420311998    3.32501336484049
C         1.77562610539923    4.85845327358495    3.25625866103605
C         2.38933643510461    5.91578449828681    3.93805769742720
C         3.72042561840413    5.86601280562399    3.57244213387192
C         0.33883451787748    4.44969000874789    3.29709583460273
C        -0.10426078591643    4.17103508194778    4.73390117982192
H         0.53132064139879    3.41283900162958    5.18631756118809
H        -1.13216685310330    3.81472033651657    4.74704675532748
H        -0.04393772285391    5.07503967720410    5.33619863717245
C        -0.53724216374629    5.52800879063730    2.65688124957815
H        -0.47248062459410    6.45725638108503    3.21978434861943
H        -1.57597089830006    5.20569036483591    2.63195978100133
H        -0.21189919279246    5.71945423957005    1.63726963810703
C         4.82506006292816    6.79659925896648    3.96305791648812
C         4.72458077704357    7.18324196179146    5.43877971593344
H         5.57477686900129    7.79957356669380    5.72309920905528
H         4.71501224949215    6.29499437609772    6.06620645920791
H         3.81548365662658    7.74816850157580    5.62675637478320
C         4.77316862564743    8.04355208694377    3.07374855938586
H         5.59585228938373    8.71505253029348    3.31047196775836
H         3.83622668590652    8.57424901632675    3.22718393111350
H         4.83977649527069    7.76288561316370    2.02511005321449
B         5.08815481064424    4.26344926201996    2.00571381766251
H        -1.53163056214370    1.98364279509980    0.62384736318053
H         6.09042229890546    4.76850318249437    2.36332772183069
H         5.48064618957255    5.27569152015068   -2.59391693571053
H         2.24026084643951    3.54942625969085   -2.36092245838623
H         6.57997718055667    6.42392915194863    0.99958841673590
H         6.28262400592111   -0.15428259622460    3.15137883928300
H         3.07069202108285   -0.25745711030831    0.84746548635027
H         7.50537350338077    3.49298312129145    3.34242103316686
H         1.92309271958174    6.61347313661699    4.60315863946607
H         0.24061202991128    3.53058809291444    2.71377224173506
H         5.78241988053315    6.29453796777371    3.80222416467697

