90
CSD_code = UJOKIN | q = 1 | S = 0 | Stoichiometry = C41H43AuN2O2P(1+) | MND = 2
Au        0.60452324699302    3.75449909510697    4.76202578616671
P         1.60161234993254    4.88006633323261    3.09170886648828
O         4.27804683199286    6.92410428872742    8.44789394559652
O        -5.55096981434104   -1.70902400128880    9.61735632655540
N        -0.21013507972748    2.83709339448275    6.44231790317005
N        -1.22849657641416    1.97157711858249    6.59377845250626
H        -1.65854078756107    1.53617628189485    5.79416188659965
C        -1.55340410834724    1.80109749562533    7.89416170957208
C        -0.69012821522161    2.62417143797629    8.61168767426968
H        -0.63013816854323    2.74384397597432    9.67225246066970
C         0.13340729017452    3.24011503602631    7.66999205495320
C         1.23257248397510    4.17771981119856    7.87440614267733
C         1.05353462900173    5.32966397088336    8.63943448196011
H         0.09359376112449    5.52389523942998    9.09337646102858
C         2.08599459938489    6.22362049445839    8.80180806684379
H         1.95768548667932    7.12205993588647    9.38394693316108
C         3.33893666130533    5.98298025057075    8.22575165527323
C         3.52664271929327    4.82163060857074    7.47910895799475
H         4.48432193865555    4.59440216059798    7.03882311268844
C         2.47809505411686    3.93871853865794    7.30174992085083
H         2.64497240438788    3.02554085990892    6.74874220495528
C         5.61251710887171    6.69699069264084    8.02847348224926
H         5.64691504583556    6.52421746578633    6.94407548951243
H         6.01824522574929    5.81259727971411    8.53762235821601
C         6.42352465975929    7.93680576179059    8.38645318192448
H         5.95646663409378    8.80492149612085    7.91746041814960
H         6.38250566842863    8.08339094020444    9.46651104069964
C        -2.59379045963013    0.90634739738295    8.34900893007165
C        -3.03304765717749    0.95550605256200    9.67294448932720
H        -2.60463982867539    1.67775857448257   10.34955498514852
C        -4.01582797565911    0.10652562932480   10.13657886365730
H        -4.32851306766616    0.18015677718008   11.16557186674006
C        -4.59456687778718   -0.83221648398340    9.28008772802290
C        -4.15706595018020   -0.88571318837855    7.94936717176435
H        -4.60714009684610   -1.61664760533022    7.29702843801619
C        -3.18003786508321   -0.03591845089978    7.49425745814977
H        -2.85768303831727   -0.12238609294199    6.46700252659016
C        -6.03625322572776   -1.74867547939507   10.95148754984915
H        -6.48992244169008   -0.78346138757475   11.21384936396776
H        -5.20773448767539   -1.95334338383037   11.63986118923879
C        -7.08374979989516   -2.85523908321880   11.02018310027284
H        -7.80675783497762   -2.68046863583289   10.22145827745958
H        -6.59776226962046   -3.81252220816438   10.82553933119977
C         2.93522657226101    5.93856360736301    3.70914939541253
C         2.61799194923653    6.78606485248363    4.76962281878952
H         1.62116147425842    6.75899093977476    5.19276459606395
C         3.56863913534682    7.65765943776546    5.26275129174179
H         3.32148858006734    8.32123651455875    6.07712938154060
C         4.84366393158958    7.66949617922371    4.71435314647442
H         5.58548101061339    8.35620419492028    5.09322700304058
C         5.16850085437083    6.80533524687479    3.68129233739541
H         6.16446078378761    6.80979793841898    3.26457802528892
C         4.21675123477121    5.93795565955732    3.17177283611170
H         4.46528306226920    5.26860294965617    2.35993623440233
C         2.34880204343095    3.83670297254969    1.81469315389014
C         2.47108328998639    4.26273913113379    0.49514436272432
H         2.10689614911928    5.23868209923148    0.20557331255804
C         3.05525054721496    3.42728289618287   -0.43984330117514
H         3.14901789660937    3.75382650446568   -1.46430760272770
C         3.51587774813469    2.17459631128548   -0.06565796347549
H         3.96721532366527    1.52612085315437   -0.80060059608074
C         3.39373196940956    1.74928409889445    1.24817456805056
H         3.75037052387678    0.77229519979607    1.53692631068437
C         2.80713726448913    2.57610690146912    2.18787072150389
H         2.69666329145590    2.25467814387074    3.21659746751032
C         0.52355865862217    6.01324172207509    2.17862472771335
C         0.94885083666291    7.26736871719415    1.75167271543071
H         1.94669679030630    7.61128484626908    1.98674852425029
C         0.08507010777413    8.07013593858892    1.02779441926805
H         0.41240066428368    9.04350986467656    0.69532344167614
C        -1.19362619833754    7.62793838423137    0.72866584881731
H        -1.86190619552994    8.25884382885824    0.16324862072300
C        -1.61878710152938    6.37926108708211    1.15613563759668
H        -2.61613539886593    6.03803350638962    0.92422432639312
C        -0.76407084769531    5.57303195816253    1.88350687012169
H        -1.08216373536510    4.59675840855320    2.22883570889349
C         7.87574748579999    7.81786442960985    7.93287507093150
H         7.90802093541316    7.66708614563456    6.85086811501354
H         8.33029284032342    6.94251163483515    8.40126918816456
C         8.67581646499134    9.06166521805113    8.29860915145848
H         9.70546930911461    8.96432279348268    7.96492212289716
H         8.67707010318746    9.21002079910149    9.37550323137170
H         8.24545178683660    9.94504783816398    7.83259864773073
C        -7.80917977323914   -2.90393148211796   12.36394541241054
H        -8.25028395274519   -1.92711031578706   12.57408415877060
H        -8.62556062888591   -3.62339394048484   12.28221174055876
C        -6.90513110812851   -3.31501877352619   13.52064357133935
H        -7.49248053083605   -3.44441051589932   14.42608953751930
H        -6.14669292044038   -2.56137701765729   13.71723001623407
H        -6.40853040011418   -4.25688610246908   13.29935944997085

