93
CSD_code = UJOMAJ | q = 0 | S = 0 | Stoichiometry = C45H44OP2Pd | MND = 4
Pd        6.24365951988803    4.46256502889240    4.53983498558649
P         7.83590815442189    2.79115090433774    5.10377325129024
P         5.27050692834917    3.92710664065949    2.42142291083541
O         6.31514768661006    7.38984620981455    4.31372786555853
C         6.22485015333167    5.56977004112378    6.44747379233205
H         7.06901282978020    6.25460089134721    6.32935671160995
C         5.10353012417469    5.86637443758123    5.67582680353365
H         4.10430589986630    5.51255165985477    5.92572449486179
C         5.28831588787245    6.72845979413473    4.51180989303495
C         4.11718642157898    6.84231253602566    3.61181966103808
H         3.22826537596600    6.29345465717519    3.89248254125672
C         4.17522543053723    7.61266116103420    2.51733056512435
H         5.11529999361253    8.12254283448949    2.33651576819384
C         3.13597732859498    7.83133175642196    1.53156726773347
C         1.83988680172133    7.32518458339077    1.66664052959574
H         1.57328196909130    6.75957331978585    2.54660602815588
C         0.88836390101875    7.55076062534743    0.69199362194399
H        -0.10913999610620    7.15376016487388    0.81481442944075
C         1.20408283904838    8.28604084311154   -0.43955009371605
H         0.45640245557235    8.46194130186201   -1.19863456827109
C         2.48279585938962    8.79833596777199   -0.58753735654920
H         2.73470702191650    9.37635248342823   -1.46491317837994
C         3.43593572822737    8.57425875009218    0.38584933543416
H         4.43198680108150    8.97722158679092    0.26709800106157
C         6.23316790242250    4.83870008526489    7.71021916797015
C         7.24643508054029    5.09278585751216    8.63891550884193
H         8.00992907656641    5.82061321205725    8.40216820003431
C         7.28193919146236    4.43020743094756    9.85015160509363
H         8.07203685059894    4.64527568622707   10.55514631260579
C         6.31151575084771    3.49239084731371   10.16304699369706
H         6.34098883432092    2.97168507109805   11.10895719779135
C         5.30377245674788    3.22318797425663    9.25031129500287
H         4.54745566875152    2.48626375869224    9.48285814964436
C         5.26441389496301    3.88705370367137    8.03999402909492
H         4.48570302263425    3.65160006924614    7.32849857154874
C         9.22012635476909    3.45653399419287    6.09377321904723
C         9.42015188029318    3.14127871444920    7.43157993898873
H         8.73214410163399    2.48874594184905    7.94621718035884
C        10.49713892347652    3.66741847463354    8.12434078333116
H        10.63737747481086    3.41530038363444    9.16541950818828
C        11.39064883982230    4.50955801280669    7.48674568516960
H        12.23523054785171    4.91453018498164    8.02480060744933
C        11.19421076094694    4.84030897900756    6.15698945665783
H        11.87771335127020    5.50973899540709    5.65394154412227
C        10.10810693075628    4.33366370562974    5.45784862975699
C         9.87913816896139    4.74003491315341    4.05476225399292
C        10.73753000129449    4.32994983208049    3.04075407508922
H        11.57778219891065    3.69216426297641    3.28020046549083
C        10.51889230474597    4.73234548027659    1.73386118271356
H        11.19035991186924    4.40433415784508    0.95262284184248
C         9.45287326033034    5.56241062262285    1.42966951258368
H         9.29724712017418    5.88482474299267    0.40905228134953
C         8.60783630997128    5.99902982444863    2.43874653234019
H         7.80162987762709    6.68941766091120    2.23482409806699
C         8.81235101488516    5.58421741348059    3.74501810221724
H         8.20539398574966    6.01634077280945    4.53821122705824
C         7.11469061796150    1.50054099358135    6.19434779124009
H         7.88310050106185    0.81689550596447    6.55388480490380
H         6.38871782721016    0.94017953310925    5.60313152129990
H         6.59736326740689    1.96157546610410    7.03506617671355
C         8.78780382454338    1.66656989534028    3.99387230745965
H         9.57224014028470    1.16997608534193    4.56434964988462
H         9.23143838799668    2.22401195098985    3.17323917384582
H         8.10595678157853    0.92377244482473    3.58539344342938
C         5.58736924536854    2.13669533305241    2.19122653024099
C         4.81322516574103    1.16483375832053    2.84095971559208
C         5.11871496588604   -0.18181307552753    2.66379794945974
H         4.51821431387019   -0.92393766574648    3.17153512665621
C         6.17623931753178   -0.57956037913451    1.86761425810203
H         6.39765336860171   -1.62948196915274    1.74455834046969
C         6.94710361077696    0.37899399805159    1.23322278882401
H         7.77788489822599    0.08375194556929    0.60897918652230
C         6.65590956408556    1.72052248770259    1.40325869467739
H         7.27923460982027    2.45474903036786    0.91744688262819
C         3.63692451590337    1.49964226841903    3.66697321051566
C         2.41628725242759    0.90488980922674    3.35297657331576
H         2.35974273389384    0.22905792534146    2.51130097198355
C         1.27987522409650    1.19064615320907    4.08606775766645
H         0.33881485319368    0.72966420619575    3.82367233677296
C         1.35009207360285    2.06965061632116    5.15300620990601
H         0.46450612483483    2.29949241881106    5.72704691089733
C         2.56278829784145    2.65095137299556    5.48356054109917
H         2.60592399835111    3.32992619806269    6.32364647303709
C         3.70539987659672    2.37113568567088    4.75203402627396
H         4.66547941763163    2.82204072574750    5.03217661288104
C         3.49276673019321    4.01949369543587    1.91102214063396
H         3.30185178522840    3.27670526607849    1.13712320986793
H         3.30622520849270    5.01363580245772    1.50987813725801
H         2.81998094677390    3.84672741098845    2.74601386543686
C         5.96033466743915    4.64510340630422    0.88044284170104
H         5.57641955822649    4.11797706079204    0.00692980713913
H         7.04674829422898    4.61959396326739    0.89617415266089
H         5.64314186718784    5.68742173054709    0.84489046143488

