49
CSD_code = UJOPAK | q = 0 | S = 0 | Stoichiometry = C18H24Cl2MoN2O2 | MND = 6
Mo        2.41058555822352    3.67125925595363    9.21943203176714
Cl        2.56115957290843    1.33906338416552    9.45680846031096
Cl        2.24664005072823    5.53741776126166    7.79952009150544
O         3.78049596234360    4.09054023546167   10.02069817402727
O         1.05928320984559    3.92448495891774   10.11635242954071
N         3.67446998647960    3.08186926956680    7.47937630614415
N         1.10893969838081    2.92516502626427    7.56977387713066
C         3.11210201092071    2.60440593675138    6.36185032939306
C         3.87563702255730    2.23685806945700    5.25796496740225
C         5.26063374407989    2.35911618577756    5.28752154296269
C         5.81397631248853    2.86019336210956    6.46592654429191
C         4.99392425597371    3.20365264111953    7.52342827339371
C         1.64545791081778    2.51339990485057    6.41408410956203
C         0.85698175378378    2.04714976299207    5.36640808637695
C        -0.52711345581123    2.00060284601048    5.49349091019821
C        -1.05341023654552    2.43871508146718    6.70880836845008
C        -0.20914211198131    2.88524300556762    7.70706853890130
C         6.15304078765425    1.98046989994903    4.12289658210865
C         6.92838697725842    3.22806650884538    3.67567461688116
C         7.13216085018847    0.89348694190375    4.58920592836426
C         5.36349962300347    1.44323202522728    2.92672732168820
C        -1.44661402289696    1.51382568509931    4.39181831854686
C        -0.68247118645573    1.05017538447096    3.14925266099092
C        -2.37711974450317    2.66801119394966    3.99159216549935
C        -2.27287366485278    0.33414295615261    4.92390538561261
H         3.38362469919328    1.85756902656453    4.38006838755148
H         6.87852707254795    2.98780043604716    6.57259649671530
H         5.39387157975505    3.59451547931316    8.45138484385060
H         1.32880793722168    1.72351427762166    4.45578341579987
H        -2.11554066263920    2.43770344366936    6.88991209784221
H        -0.58761811965444    3.22977358103579    8.66198967080282
H         7.55973016991291    3.61164494491212    4.47164754251132
H         7.56239706094605    2.98293404519142    2.82715459160012
H         6.24004898442250    4.01510694932953    3.37575985856146
H         6.58859869775717    0.02065453804454    4.94401240359224
H         7.76766806483700    0.59041422691724    3.76077178567279
H         7.76969023967247    1.24903862620229    5.39316936411107
H         4.67319159915593    2.19100847219865    2.54299987925931
H         6.05430872525381    1.18749413420674    2.12681298022143
H         4.81314885253446    0.54315879134772    3.19126657559545
H        -0.01898264629324    0.22058790653411    3.38295518529918
H        -1.39154171611895    0.70805006671656    2.39917809415013
H        -0.10651707199269    1.86392457080942    2.71452251035403
H        -1.79680547206873    3.51908713892944    3.64202324405846
H        -3.03708516702187    2.34778891294359    3.18912947898515
H        -2.99027531488583    2.99299785357555    4.82697691229927
H        -2.89493430839360    0.62858011808036    5.76384686060691
H        -2.92172383408696   -0.04468915935069    4.13806632934125
H        -1.61812023460913   -0.47150566410960    5.24858547020959

