73
CSD_code = UJOVAQ | q = 0 | S = 0 | Stoichiometry = C36H28Br2MoN6 | MND = 6
Mo        4.87513933233974   10.15886897399163    4.01529096856343
Br        3.35062549143033    8.72526731075378    5.61496350313937
Br        5.81017715599625   11.90413538784463    2.28453676361339
N         3.25317243541169   10.15011841790503    2.62880556782163
N         3.57783310958765   11.69732473164223    4.72645843686997
N         6.09583037308517   10.58648173308560    5.22753784747512
N         5.56286064138780    8.71555286299956    3.25014623433084
N         7.07640503002648   10.76399858296979    6.04357602928264
N         6.18320869991275    7.67768109085053    2.80588905775025
C         3.13240607942634    9.40925993517615    1.53366879480138
H         3.94922727267418    8.73227063364144    1.31732065100014
C         2.03712128758359    9.46910956021584    0.68163837456231
H         2.01176947148344    8.82795785645470   -0.18481955519993
C         1.00079817235009   10.33938914738499    0.95666788686950
H         0.13129053462031   10.39802261406928    0.32010950444636
C         1.10557955316553   11.16754106960857    2.08005307600574
C         0.12243446635646   12.13002888180392    2.44817525508858
H        -0.75786069482296   12.21470649090055    1.82851315012766
C         0.28345608811684   12.91868755297791    3.53770889749938
H        -0.46709780545795   13.64537258992197    3.81096271366519
C         1.44196973060888   12.81713887485182    4.36001064962844
C         1.65523339694614   13.59736905108015    5.50219198040080
H         0.92511833726579   14.33499437006066    5.79802230215281
C         2.80518312725970   13.38723425962025    6.23716844622260
H         3.00386286163545   13.95064596521863    7.13471665552342
C         3.72827060284542   12.43750397763279    5.81844863123515
H         4.62816696020436   12.26738550859727    6.39596599155693
C         2.43485102078864   11.87127304301749    4.01767697663810
C         2.26195400092888   11.03975346693319    2.88274081186142
C         7.95185378431624    9.69509945364790    6.32153372581461
C         9.29102805085784    9.92943277363142    6.62481273391008
H         9.66947668971151   10.94041748220009    6.65550371487879
C        10.13262679503215    8.86156409048033    6.86812854267606
H        11.17129818313565    9.04625079981751    7.09916343879557
C         9.65567951926624    7.56206120593809    6.80843372673663
H        10.31915702738825    6.73302062785031    7.00124717765749
C         8.32568609314921    7.33052723513390    6.49865857210806
H         7.94739864859742    6.32077064673234    6.45297701564238
C         7.47360740520412    8.38832824607648    6.25135834077293
H         6.43080406756819    8.21684213860210    6.01710770400690
C         7.56598916318012    7.54224090795680    3.04359018290341
C         8.34856670557132    8.68780575150441    3.17248768206795
H         7.88872191000115    9.66068087527976    3.05464335337063
C         9.69991177015500    8.57142857652287    3.43031033993377
H        10.30311353395742    9.46193042552781    3.51943103875673
C        10.27985202322842    7.32123752300891    3.56879188005076
H        11.33647254769543    7.23359624821901    3.77018008396789
C         9.49879849383300    6.18295570063899    3.45053429933970
H         9.94473079834173    5.20647597712736    3.56867686496470
C         8.14584921641202    6.28445919856452    3.19147678302408
H         7.53632541817657    5.39605208383150    3.11767750549028
C         7.26966006811695   12.02373184111052    6.65414104914619
C         7.63957493693875   12.11654210619569    7.99423586258825
H         7.81131700425307   11.21705968082168    8.56657414205963
C         7.76902742846288   13.36026142109102    8.58202937455696
H         8.05247598974266   13.43004550970288    9.62169070011750
C         7.52698917414345   14.51259707361224    7.84989318242563
H         7.62901145486965   15.48039836918809    8.31698717081946
C         7.15523166028035   14.41871876537799    6.51849024790052
H         6.97209810073505   15.31176622577552    5.94027783961402
C         7.02626325884090   13.18120430106898    5.91712472780455
H         6.75187311480833   13.10148018431902    4.87390534667468
C         5.47886343020855    6.68461862973928    2.08905416288720
C         4.17703862783829    6.36508151164548    2.47052591600633
H         3.74565555710625    6.83702622090883    3.34279292266531
C         3.45603791213217    5.43628905692114    1.74474599714008
H         2.45061341948841    5.18851969310871    2.04995023210151
C         4.02309365288119    4.81978360856439    0.64110659677056
H         3.45912476467042    4.09214516864970    0.07745658192084
C         5.31810308116312    5.13867628841004    0.26211236022853
H         5.76061145755286    4.66482850130106   -0.60146908980282
C         6.04821024938716    6.06962521212273    0.97584625556567
H         7.05069107799622    6.33204872109967    0.67205811097063

