62
CSD_code = UJOVEU | q = 0 | S = 0 | Stoichiometry = C27H29Cl2CoN2O | MND = 4
Co        4.79309614255668   -0.60244455659613    4.18402911944403
Cl        5.93784295931906   -1.77592882955302    2.91941998681501
Cl        3.37950334285505   -2.09539783653249    4.53415459616127
O         4.67123837855061    0.17855516575824    5.81843947402282
N         3.75795053836978    0.72050132294666    3.49365596260120
N         5.61897230277704   -0.22047512100425    8.13937130085508
C         4.07679859814981    0.71137321889819   -2.18915495259860
H         4.70552394620252    1.52117109310456   -2.55094752929138
H         3.09462851558385    0.78937818067077   -2.64929216936900
H         4.52306981296493   -0.23087843459933   -2.50777898348835
C         3.97256950110400    0.73768651356668   -0.69660947823809
C         2.86846154560099    0.19308158379544   -0.05600754086094
H         2.07256718338135   -0.23437145781599   -0.64827370490720
C         2.75783770450788    0.17270333036845    1.32568196956163
C         1.56159854534730   -0.42725112922338    1.99235152500628
H         1.87187087766371   -1.20302530339096    2.69232361535757
H         0.89508882589721   -0.86308276085313    1.25369191491323
H         1.00913531168046    0.32217697641371    2.55820960057662
C         3.80599346207897    0.71645610821443    2.07960086006358
C         4.92851400358232    1.28067638763586    1.45703156768613
C         6.02764789161022    1.87209597685582    2.28703477453785
H         6.36528737818603    1.15592544692358    3.04482266142072
H         5.68061988792639    2.76793604882958    2.80447223479180
H         6.87779433095804    2.13603700166242    1.66427278120145
C         4.99059534760780    1.28376745535344    0.07520916584263
H         5.85472688666735    1.71221186775580   -0.41114365768929
C         2.99972435060096    1.57233778020512    4.11216627975603
H         2.40219996783244    2.24792956478621    3.50259635738613
C         2.90951725475178    1.71693417809117    5.51627236526616
C         1.97420159711814    2.58492380953751    6.10499680938587
H         1.30492454583432    3.13747974481352    5.46087573677170
C         1.89385019137645    2.72889916478331    7.47039627182954
C         0.88422782311812    3.63261372307201    8.10959678730450
H         1.35566036010831    4.26323042799096    8.86054664997254
H         0.11409404064444    3.04288741311213    8.60554607870377
H         0.40591226075219    4.26734844186896    7.36904648943378
C         2.77572728759635    1.99368456259796    8.27228361919667
H         2.71092125304162    2.09985178102733    9.34673177490212
C         3.73070650399502    1.14439470377817    7.74886969357497
C         3.81654295547141    0.97193080091104    6.32965147399136
C         4.62398176610196    0.39933743890861    8.61423019629814
H         4.34301402191321    0.38438220367210    9.67580084844465
C         6.55840366381205   -0.94064138029245    8.83068952152264
C         6.94388745346452   -2.16555080385036    8.24902367350833
C         6.25285850820726   -2.63805005802145    7.00958077800073
H         6.77539167910488   -3.48286030104911    6.56784664198100
H         6.20001355083356   -1.82389539219464    6.28127374699993
H         5.22827996848402   -2.93822479307291    7.23006688993798
C         7.92594435773808   -2.92369852789373    8.85354136767275
H         8.20574818521348   -3.87169277614316    8.41555831835288
C         8.57659220355524   -2.48763837155280   10.00322401702822
C         9.64146790463746   -3.33263779532453   10.63407086547874
H        10.11602389128682   -2.81023224386054   11.46106238878758
H        10.40399811953440   -3.59442291035005    9.90175198419642
H         9.21205999497932   -4.26057923351176   11.01169659732251
C         8.22261565546595   -1.25833629354315   10.53387398775072
H         8.73776023362803   -0.89200997477553   11.41176030199773
C         7.22038780036968   -0.47542192748376    9.97812898918900
C         6.92505634245557    0.86577759913465   10.58726436513909
H         6.53696826515806    1.56086036279933    9.84441681812505
H         7.83154377500606    1.28694792625493   11.01867679476236
H         6.18935904560763    0.77306290632615   11.38731942560491

