74
CSD_code = UJOVUM | q = 0 | S = 0 | Stoichiometry = C38H30BrCoN2S2 | MND = 5
Br       -1.74591502321890   12.62511355682970    4.18735740133052
Co       -0.02525883012371   13.21623767946107    5.62996005080767
S         1.64381893439123   11.85786280862030    6.00620550848233
S         1.36510167717565   13.92039681827749    4.06673945574543
N        -0.92164447425837   12.58273110448111    7.21489157647838
N        -0.81631723826106   14.90575968149416    6.12526682561015
C        -1.06599879558039   11.31315244771903    7.60335940494683
C        -1.65339878303839   10.99390970681716    8.81978379404114
H        -1.75053894132394    9.95963507785749    9.10780119737761
C        -2.09855789724665   12.00883692782618    9.65020196158517
H        -2.54867248036109   11.78009663795128   10.60356110915125
C        -1.96354565246917   13.31973610853751    9.23399492305662
H        -2.31649589353073   14.12748676094195    9.85286204455568
C        -1.37983335228085   13.58008882512528    7.99808913564731
C        -1.25757911942910   14.90450861493749    7.40536568795257
C        -1.59996538283639   16.08139232717132    8.06232391444021
H        -1.91728341214913   16.05657216689740    9.09127970063397
C        -1.52700535790237   17.27974398745415    7.37947248851801
H        -1.77815793529064   18.20835421865067    7.86750851128595
C        -1.14591413387793   17.25972038277321    6.04886530750110
H        -1.11043388846221   18.17035386861207    5.47298576464532
C        -0.80123815398396   16.05795601587951    5.44354436866337
C        -0.50384342149882   10.25681123522683    6.71282520054493
H        -0.85844510248683    9.27396170049793    7.02748306800930
H        -0.81288175107487   10.44038927016507    5.68079608749829
C         1.03599980936108   10.30252536078174    6.80239270265303
C         1.71826853182494    9.20274657071352    6.02468120598468
C         3.07507165853383    8.98804727549193    6.25648128590829
H         3.58811987514775    9.59796176794642    6.98636605460753
C         3.76548350330743    8.01565760989011    5.56071107894635
H         4.81699303956542    7.86317815015646    5.75488202862873
C         3.11227022030937    7.24321853810729    4.61445786601074
H         3.64992428224093    6.48237154432227    4.06828661910571
C         1.76946489764899    7.46098638688723    4.36652057697910
H         1.25319925088018    6.87205632851254    3.62270302264951
C         1.07447296158694    8.43594328725838    5.06283332886125
H         0.03027601518538    8.58807067887545    4.83900638372589
C         1.40307920128085   10.23526622273023    8.27207728012119
C         1.33151106517485    9.00296554235604    8.91476965928391
H         1.08864553465338    8.11814175472561    8.34339137515171
C         1.57837918352089    8.90154463604055   10.27077322615306
C         1.89505252191927   10.03065817725374   11.00792099146365
H         2.08713714133253    9.95151108644451   12.06768302874516
C         1.97022487047614   11.25866521343895   10.37650403344786
H         2.22196772908263   12.14509124046611   10.94057367673312
C         1.72526337534322   11.35920525845774    9.01824929824005
H         1.79490267790756   12.32238067267261    8.53265613134703
C        -0.38733595417819   16.03955756473853    4.00725580043219
H        -0.60028624229851   17.01269725972925    3.56141083114713
H        -0.94861270328024   15.27010937179275    3.47296059899252
C         1.12314273904632   15.73904827219148    3.89055784294726
C         1.68449507260381   16.04660507616304    2.52240870717713
C         3.05911841218720   16.22492113312601    2.39138599415713
H         3.68855050439617   16.15873503995835    3.26702469699226
C         3.62352799555011   16.47832715001270    1.15610763941660
H         4.69166355092436   16.61641932795944    1.07458723992399
C         2.82417959542272   16.54875453593135    0.02757929428154
H         3.26349402164350   16.74729130771369   -0.93882182783023
C         1.46035272348243   16.34930922600773    0.14545458350385
H         0.82976926708636   16.38675655658562   -0.73082318204687
C         0.89244908865361   16.09554512414348    1.38202433009153
H        -0.17097402508789   15.92594988635057    1.44287480357319
C         1.82759502923329   16.54325106602525    4.96630692963914
C         1.91621071657744   17.92293787275463    4.80047928129341
H         1.55385207571519   18.37285282009774    3.88687512631775
C         2.47464777728007   18.71616846181173    5.78422051321531
H         2.53864718691172   19.78470678098335    5.63900266879805
C         2.95099397393424   18.14486202668410    6.95287912464501
H         3.38600274225580   18.76477618773228    7.72282644346713
C         2.87468011450643   16.77484152439288    7.12211553063131
H         3.25371789728402   16.31693300799431    8.02436536974964
C         2.31797819826440   15.98023140185082    6.13478445086449
H         2.27848399106749   14.90777209156069    6.27532190689378
H         1.52295331364638    7.93723869197004   10.75428995848077

