104
CSD_code = UJOVUK | q = 1 | S = 0 | Stoichiometry = C48H51IrOP3(1+) | MND = 5
Ir       10.78235660843470    2.15319949373745    3.09005476951537
P        11.10078184429965    4.38941762226561    2.54332483698867
O        11.63091086692486   -0.73467872480948    2.83474052846608
C        11.84051619883757    3.00931358383282    1.70158358746719
H        10.48249767940031    5.16285096600058    1.56122347871234
P         8.33653415751872    2.11300612124134    3.05168152390845
C        12.62425745341128    2.88444522186163    0.44194977515975
P        10.92137944029707    2.01782724830304    5.52830928257543
C        12.07303702210197    3.87072807297937   -0.59816608110099
H        11.01897871970268    3.67429592193775   -0.78743822760028
H        12.61773307330477    3.76520339671975   -1.53311206328214
H        12.17973702466238    4.89765484842820   -0.25192934974774
C        12.53971523480899    1.45468351982793   -0.10899014343519
H        12.92804571996743    0.74185432356807    0.61438091657629
H        13.12734238457226    1.37397415997897   -1.01994001397600
H        11.51247176301012    1.18573829380430   -0.34133864018243
C        14.10318474007386    3.20218875974781    0.71950043200503
H        14.22966850592746    4.23115248327957    1.04558784506685
H        14.67921787973546    3.06209877722494   -0.19185281512723
H        14.49862678879169    2.53577142977618    1.48332165245457
C        12.27706457832998    5.65482579867172    3.24255445044737
H        11.67611107225620    6.20224881824827    3.98508153457921
C        12.78434018471569    6.65688675166518    2.20917647764188
H        13.38610342464957    6.14960360327139    1.45180967483887
H        11.94244934789640    7.13900027212780    1.70349933192862
C        13.64382622400516    7.70945176326623    2.90701374509993
H        14.02979831402607    8.41295973333854    2.16764821057029
H        13.02708776391086    8.27033084372758    3.61295019799873
C        14.80189623934321    7.05361607894588    3.65474116437004
H        15.38939044792267    7.81840592820473    4.16387343385217
H        15.45856808707964    6.55098519043301    2.94076703188040
C        14.28523654050779    6.03745426542496    4.67031936560012
H        15.12288402772394    5.55755770349242    5.17904484239739
H        13.68229259670093    6.54596274372613    5.42646199564700
C        13.43387382862966    4.98106572395931    3.97317467979369
H        13.05044628866296    4.26420870364918    4.70604049986156
H        14.05218855472956    4.43117307096785    3.26074617181646
C         7.31523895396432    0.61669005595872    3.26390388508883
C         7.89561749032125   -0.61417721298083    2.97683356347410
H         8.93826190337163   -0.65415586461871    2.69083435212112
C         7.14692382573367   -1.77409907391432    3.04971342636287
H         7.60622908762785   -2.72570907528004    2.82861242343087
C         5.80923936988566   -1.71063997427494    3.40393007871494
H         5.22301017441410   -2.61458932733351    3.46687053687239
C         5.22002173607776   -0.48389982453784    3.66417685463416
H         4.17291000081569   -0.43133050504397    3.92197563486056
C         5.96344004978569    0.67969989072369    3.58733063577916
H         5.48844737112732    1.63082867967238    3.77815451302680
C         7.73239702069632    2.58736124788669    1.39215005896191
C         6.48996231257971    3.18870430406726    1.21405836224490
H         5.88219941064267    3.45080202479027    2.06833828739256
C         6.03565619872257    3.46342533350639   -0.06277741650278
H         5.07448522673353    3.93635115863307   -0.19674535863763
C         6.80470373885449    3.13064446932162   -1.16673385331116
H         6.44377354763628    3.34723766849074   -2.16027687426575
C         8.03406367119482    2.51618068952061   -0.99354878379566
H         8.63129834024392    2.24737335478274   -1.85226849664282
C         8.49427063850442    2.24372741556049    0.28172687712115
H         9.45294895588633    1.76202158966362    0.43302732627577
C         7.57788431656893    3.36894485160418    4.12091511233039
C         7.66951284578187    4.70767346747761    3.73824367342443
H         8.10680014091499    4.95997780853396    2.77939778059433
C         7.19594763884354    5.70430581472066    4.57055341612252
H         7.25775620931141    6.73712219617898    4.26136347823059
C         6.64597579739770    5.37659657954427    5.80073426043351
H         6.27719653045312    6.15472172774128    6.45117988050386
C         6.57059078391315    4.05046520016426    6.19363390182903
H         6.14598984964005    3.79232350253502    7.15185413072970
C         7.03728836008449    3.04741840208354    5.36229819603653
H         6.97383013878994    2.01457159512963    5.67124463663340
C        12.34291864136944    0.99718128729546    6.04080254521031
C        13.49815843167987    1.05103588188916    5.26481583788165
H        13.51100363537750    1.66957873215332    4.37414450435969
C        14.61324711136864    0.31803708075406    5.62353526207500
H        15.50648044144928    0.36383141414877    5.01907765618392
C        14.58023945761674   -0.48032437789463    6.75612117596049
H        15.44790346573068   -1.05855101587979    7.03378596315594
C        13.43257077554691   -0.53918299819816    7.52965214385917
H        13.40602036590639   -1.16138519707166    8.41132144565829
C        12.31486019582398    0.19763063444533    7.17908904268080
H        11.42302660922629    0.15010096025222    7.78762827355905
C        11.22745176392436    3.58866651526951    6.40154212921946
C        10.41097160324170    4.67454413887548    6.09722871359328
H         9.62591626181520    4.56264638038925    5.36219833646263
C        10.59842147318068    5.88747892820019    6.73273329488462
H         9.95437531688577    6.72190035444402    6.49677144016335
C        11.61302254615434    6.02983691819539    7.66626751730897
H        11.76615411601403    6.97830953575744    8.15815693504215
C        12.43259180507060    4.95385524331162    7.96643492033051
H        13.22428976441772    5.06352433937513    8.69186060355679
C        12.24340338644504    3.73381374993659    7.34121820159678
H        12.88737010100766    2.89969887352615    7.57920858020670
C         9.56499205240885    1.28546542992183    6.49550964537467
C         9.01109747745851    1.88108090947481    7.62261291837882
H         9.38986489884938    2.82711816051790    7.98180368002114
C         7.96951332178563    1.25364024331851    8.28521811825895
H         7.54383069372992    1.71248274366928    9.16497877814467
C         7.47246246034729    0.04512438300677    7.82494631740133
H         6.65515172152917   -0.43373357238117    8.34204647197591
C         8.02681896700829   -0.55302634449871    6.70277456507627
H         7.64370281947167   -1.49595712942862    6.34292227826258
C         9.07076041846609    0.06433795393693    6.04183470263046
H         9.51997313167150   -0.39628130157316    5.17121202885560
C        11.28411250455458    0.35839046187895    2.88614737009220

