134
CSD_code = UJOVOF | q = 0 | S = 0 | Stoichiometry = C54H73CuN4O2 | MND = 2
Cu       26.05771562080220    2.77869942088529   13.54531787865507
O        24.50455232363685    3.67491365608658   14.40797783851579
N        22.17170685601365    3.57854535475645   15.77361460378891
H        22.65266995557386    4.34979079750985   15.31824865903168
C        24.19643227655057    2.55332229862712   14.91270897814579
O        24.95660236680823    1.55743500328470   14.68351509422945
N        23.42712065170921    0.17151452433338   16.38749337729892
H        24.19745757469956    0.20397050870565   15.72369809430201
C        23.00180369722981    2.43339098996690   15.72738670037672
N        28.74979816415246    3.22046436527728   12.57973923060296
C        22.67194436667983    1.30155054510292   16.39657861123473
H        21.75659565885267    1.27317628743571   16.96792989832334
N        27.33512950904675    2.94231688208129   10.99718156415316
C        21.65334979731815    3.90240437471091   17.06228079240640
C        22.47211201459914    4.42555770767188   18.07054171283024
C        21.92138989624929    4.64323357953498   19.32627136757609
H        22.54010645213495    5.02925882104728   20.12300874619894
C        20.59067663193161    4.36935819763917   19.57747949057875
H        20.18008166778813    4.54253101428178   20.56224090342707
C        19.78359852681585    3.88341592004756   18.56708209354641
H        18.74058539728434    3.68859087503812   18.76796361853054
C        20.30179789736044    3.63864198051155   17.30355435311213
C        23.92786283174869    4.75209824900169   17.81766436219633
H        24.13829012854276    4.67319658532788   16.74758021263831
C        24.25538253693174    6.18655274818643   18.23975587978100
H        23.55797559578404    6.88579212880702   17.78294852288905
H        25.26272666863492    6.44518593523994   17.91961945899874
H        24.20218692452320    6.30368102211594   19.31937038994706
C        24.83792806455550    3.75597315171231   18.54082112618747
H        24.63851022987413    3.75414196447701   19.61052852875560
H        25.88199339770486    4.01898548222180   18.38122205555939
H        24.67972650117738    2.75016474184247   18.15769697240697
C        19.41459795267171    3.13791728675840   16.18791546448076
H        20.05459089918483    2.94393064569555   15.32263489643086
C        18.40425619778619    4.22351582324267   15.80792651430714
H        17.74195064586192    4.44459831253142   16.64215842407346
H        17.79901093712480    3.89720240356807   14.96468716002872
H        18.92220339151122    5.13828686922154   15.52919400841578
C        18.69257655047426    1.84169581412326   16.55752018608946
H        18.03195143009741    1.98625957736601   17.40932393470457
H        19.40627026327942    1.05869211742543   16.80473842043440
H        18.09318039369859    1.49842683440378   15.71670185261634
C        23.16889088554250   -0.99555244934071   17.09759025932931
C        22.79015288121944   -0.96693395903066   18.45068255786915
C        22.50108056289523   -2.16823703786414   19.08401863631823
H        22.18647953763433   -2.15982929969391   20.11678520885820
C        22.63084829724061   -3.37693539214943   18.43081875257771
H        22.40758785175608   -4.29984643833462   18.94549316979515
C        23.06967817547936   -3.40147179970385   17.11926300097229
H        23.19564082636809   -4.35247654062035   16.62627978775175
C        23.32737979001617   -2.22775036984080   16.43280850742626
C        22.76721925479432    0.30652110991693   19.27006450293077
H        23.11765119345841    1.13831286982377   18.65633106802071
C        21.35672869080314    0.63952822941321   19.75989933600551
H        20.66395713597741    0.72066305803907   18.92536552114006
H        21.35901990740255    1.59096819347719   20.28748209563458
H        20.98806231015049   -0.13146772353947   20.43239518029944
C        23.73141469859672    0.19616169399804   20.45526113980183
H        23.41476567910959   -0.57097272826527   21.15692488423176
H        23.77314425464357    1.14627863290041   20.98389072587741
H        24.73212259385924   -0.04955189986952   20.10610945969491
C        23.80426640467295   -2.25620489382099   14.99684227842972
H        23.48614593318265   -1.33093251198794   14.50546191119999
C        25.33543043633922   -2.31659861201637   14.97347913249569
H        25.76811970178828   -1.43606505351329   15.44201914149732
H        25.69217015097628   -2.36786840601385   13.94777774119154
H        25.68334021402693   -3.19780268096650   15.50947691650975
C        23.21993989124458   -3.41708154012321   14.19074582516006
H        23.43579397851553   -3.27214947246742   13.13396376627107
H        22.14096488079943   -3.46751576769797   14.31833425239426
H        23.65259802194411   -4.36837828374921   14.49074691106205
C        27.44458076917033    2.98327111380558   12.34076887131221
C        29.44813307934106    3.32577550273473   11.40257718059612
H        30.50162703713193    3.51360982460726   11.38149172908165
C        28.55416170366782    3.14985325022074   10.40272919497441
H        28.67695922554636    3.15431004872053    9.33959268411934
C        29.30943750857151    3.36294624963312   13.87746331959539
C        29.34870068497908    4.63188099222341   14.45885616509840
C        29.89695591986578    4.75055555381019   15.72878753565660
H        29.93289406763576    5.71596600431909   16.20845308028651
C        30.38844336823437    3.64347148728329   16.39335044186985
H        30.81115490818670    3.75344273377706   17.38115884335538
C        30.32740169219739    2.39403396411312   15.80677298903882
H        30.69617663752636    1.53661792203808   16.34708102574617
C        29.78717014954741    2.22984780452086   14.53848970522709
C        28.75501316080138    5.83113476718609   13.75915933063395
H        28.57427827000852    5.57874706123207   12.70986349550157
C        29.69232355633151    7.03971730268966   13.78736861549971
H        29.80884381318906    7.42776727821052   14.79548003787877
H        29.28596875922722    7.83514134531582   13.16661487020741
H        30.67516557800351    6.77168479873236   13.40482209384144
C        27.40613065880596    6.16563240984413   14.40221330038324
H        27.53610616293113    6.41265488331933   15.45327379569910
H        26.72980506508307    5.31376617608656   14.32683181266645
H        26.95059856261568    7.01533219918731   13.89932610188194
C        29.65908185464484    0.85693503147756   13.92338433986620
H        29.42558537690985    0.96409265612589   12.85965925396877
C        30.95243503435834    0.04788663743419   14.03439258985824
H        31.79363233888184    0.61183126770870   13.63624834514800
H        30.85785419851894   -0.87632943415907   13.46865057900959
H        31.16898826859687   -0.21241616727906   15.06675079450588
C        28.49260548814867    0.12267134575276   14.59059485328712
H        28.67934900071545   -0.00022049247307   15.65479763145031
H        28.36250251012580   -0.86061169672394   14.14512007679940
H        27.56957955855053    0.68953018554651   14.46421236740174
C        26.10597878429787    2.73022388037128   10.31679802835115
C        25.30300826988714    3.83055843266622   10.01099535554409
C        24.09922064549433    3.59834364723358    9.35909989429924
H        23.45463562759995    4.42856813937685    9.11626354171941
C        23.70744212009394    2.31524721686659    9.03052350301098
H        22.76462599318639    2.15225360179354    8.52954590700324
C        24.50954386717427    1.23790600777560    9.35464144308393
H        24.18142967641393    0.23989672850304    9.11008160067123
C        25.72322707998705    1.42488153057050   10.00157844809522
C        25.69550266402410    5.23190487122127   10.41261166724203
H        26.70686721405456    5.21542479300686   10.82956167040984
C        24.74818181656316    5.73393449143246   11.50486813432054
H        23.72716787703168    5.78632730735920   11.13518151080153
H        25.04828542634925    6.72653338059096   11.83268463369333
H        24.77051645822151    5.06290327642253   12.36175837931922
C        25.70210903557470    6.17874292041811    9.21043459524521
H        26.34192269072391    5.79114443223704    8.41988419304542
H        26.07716020471819    7.15479037749456    9.51022613442959
H        24.70129853250961    6.31018134218120    8.80815173215743
C        26.57073059069411    0.24313944091999   10.40711497111689
H        27.55373854758531    0.60208495632844   10.72724771663852
C        25.91568668424455   -0.45726003817594   11.60030300278613
H        25.78794294382328    0.24167310454627   12.42681036493196
H        26.54071365352790   -1.28238706847945   11.93411055235277
H        24.93874940005729   -0.84787002297173   11.32521391750310
C        26.78817300618330   -0.73351956280643    9.24975872250192
H        25.86106125771023   -1.22508648754501    8.96780042188535
H        27.49991440942102   -1.50172056763717    9.54420813014019
H        27.18172857174426   -0.21434186389989    8.37817112754331

