102
CSD_code = UJUBUX | q = 1 | S = 0 | Stoichiometry = C50H38ClN4O6P2Ru(1+) | MND = 6
Ru        6.61466660213546   20.14905985949138   15.69057566097135
Cl        6.54633641777026   20.66682203183175   17.96264390859105
P         8.99693755098046   20.24158966231575   15.50171631171890
P         4.34522740633930   20.72869135993551   16.10198251010317
N         7.31850771247024   25.64732732917195   16.38834416568273
C         9.38168526783030   19.91795088696178   13.75833722834182
C         9.85245463851657   18.93884395975277   16.43103820554328
C        11.85864562819039   17.68506912581297   16.83379362629785
H        12.87865610570122   17.44406695160207   16.57645176816434
C         9.39247732530557   20.95370595982778   12.82384374209252
H         9.28438515134605   21.97890702739303   13.15220823713165
C        11.24037947082344   17.04674077408998   17.89904567241086
H        11.78067854502737   16.30611517053324   18.46801507098461
C         9.48841410153266   18.59846336565774   13.32126638855902
H         9.45825255333690   17.79137880831360   14.04149516988626
C        10.97134912550768   22.24944822224385   15.27668338365141
H        11.26045455607849   21.81595324558277   14.33045321648531
C         9.92671412668796   21.70856459651458   16.02017585971459
C         9.61466441706567   22.23757484464670   17.27198663869495
H         8.84176588965268   21.77411034588465   17.86956444181445
C         9.23962354278898   18.31250863175915   17.51049576684998
H         8.22740336324185   18.58045682200402   17.79329764447168
C         9.93628754384360   17.36432565407402   18.23996938178955
H         9.46103217453279   16.87694288357381   19.07736156285416
C        11.31081584777299   23.90493326290213   16.98702746034221
H        11.84030989291835   24.77105992536346   17.35234057000194
C        11.17300118878397   18.63514011767522   16.10228601493742
H        11.65096067446982   19.14083386352975   15.27430431996466
C        11.65504673877637   23.34915036861300   15.76534540260081
H        12.46267665962052   23.77164222877995   15.18684164440989
C        10.29916743206459   23.33978773650067   17.74761425719663
H        10.03902845854423   23.76081428075184   18.70580062752727
C         9.64487858142844   18.32347071362967   11.97483603380707
H         9.74344394686894   17.30074786767659   11.64467180382954
C         9.67227323599532   19.35733690550974   11.05231965097501
H         9.79542458051356   19.14110772911284   10.00218530564153
C         9.54242102934092   20.67060296642816   11.47742348365980
H         9.55228009759465   21.47634993234885   10.75889165267966
C         3.32264029679322   20.46467752597537   14.61685840724927
C         4.02897411912206   22.41150894148501   16.68379959921232
C         3.85054561917329   24.76927757120654   16.24503928306567
H         3.84550151440576   25.59189747712873   15.54561392276289
C         3.87511717749073   22.65579817617636   18.04689877909052
H         3.89417903324180   21.83336755375451   18.74795386638684
C         6.99230690724633   23.26343146031800   16.01849359144090
H         7.06793310040974   23.16233546535548   17.09287609742572
C         6.65200039562666   22.44029311953233   13.81756766044454
C         3.52894572977691   19.24833466678283   13.96745692780954
H         4.25783650192550   18.55187593593726   14.36892085510050
C         6.77043020023789   22.15670109740228   15.19815479854128
C         4.02887397799161   23.47792878214876   15.78421525567057
H         4.17931545974831   23.29714319289422   14.72779920664432
C         2.33760464959703   21.32853099967099   14.15309486226904
H         2.12955973172935   22.25331137383623   14.67068082709835
C         3.69445757829078   25.00839299416057   17.60162131153522
H         3.56870339754056   26.01898650645390   17.95760698033477
C         3.70909863366298   23.95238988430766   18.49887338935012
H         3.59640721152617   24.13921489431139   19.55545475427743
C         7.09733327601441   24.53793912574232   15.48390317338017
C         6.74373679547856   23.72787436553248   13.27505404958189
H         6.64031778544831   23.86664132564735   12.20988339592866
C         1.60781882396844   20.99482522476775   13.02409828119374
H         0.84649986691362   21.67012545983233   12.66474923331748
C         6.97172406584651   24.78984753613563   14.11967553491585
H         7.05628085822939   25.80153630220485   13.75464451770770
C         1.84542446087051   19.80313236475983   12.36003219895018
H         1.27757179939331   19.55489206368592   11.47688564616677
C         2.80031933764456   18.92027801771800   12.84148695920297
H         2.97164951417316   17.97799830025040   12.34254713420754
O         7.69210081468381   25.38293513177596   17.50890397447922
O         7.10849496480506   26.75899762962171   15.96245754135784
N         6.29818617556343   20.15165935693570    8.86293843556397
O         6.17704774727040   19.55938119533628    7.81918905926252
O         6.45397595173189   21.34298997137409    8.99244239743675
C         3.46582551815561   19.65776147007712   17.27544203741915
C         4.05262657735141   18.56949275472864   17.90683940351044
H         5.10330681836194   18.34998064055825   17.75947312662328
C         1.96277616431978   18.06630486585303   18.97367205516334
H         1.37944301209131   17.44927200618758   19.63928949737831
C         2.11682032973412   19.94254822640741   17.48845730916922
H         1.66214817781839   20.78797253677410   16.98942092292948
C         1.37255925520793   19.14938173807135   18.33915684443149
H         0.33095610484439   19.37515186342786   18.50841434798209
C         3.29923387458143   17.77754573121527   18.75656061195744
H         3.75939558332094   16.93626301501759   19.25175504082909
C         6.30939628587028   17.79473360920881   12.43188929070777
H         6.34007219023981   17.18719860168904   13.32199069226004
C         6.27104499912788   19.36254722844019   10.07730744934248
C         6.32848575655921   19.96274977907556   11.32913095288471
C         6.22394186376253   17.97987470582012   10.02630436922218
H         6.18083735244488   17.51162666880433    9.05358579553538
C         6.35044098004049   19.18294446178393   12.50181808864006
C         6.24162790383452   17.19330898997178   11.18356579255966
C         6.19399376811882   15.70649956058153   11.05173652508390
H         5.26689186795826   15.40176127336073   10.56916004027609
H         6.25845842070224   15.22180072353458   12.02113064003121
H         7.01353634034981   15.35622964529791   10.42741023085465
N         6.56854310855773   18.46653156368626   15.80120603581676
O         6.61464340842680   17.32472607349364   15.61099635952065
C         6.47233707490884   21.27310928237354   13.00771694803666
N         6.43851506924856   20.07053130414097   13.55171748508453
O         6.39420113928199   21.26470527275596   11.67894640821388

