123
CSD_code = UJUDAF | q = 1 | S = 0 | Stoichiometry = C63H51ClN3P4Pd(1+) | MND = 5
Pd       -7.21803683301770  -12.56311846949475  -11.24206851440272
P        -6.88668070071983  -10.44908002770546  -11.76793301283164
P        -6.46746323257995  -10.74878934816801   -8.98807736568215
Cl       -7.52321249214631  -14.77028073845088  -10.85504551188128
N        -7.63933976637253   -9.23651169611605  -10.88097742041039
P        -4.97370454896135  -12.65345527167072  -11.70204578816462
N        -5.27131200965041   -9.99471878862804  -11.81015981869179
P        -9.29121905465034  -12.04562840064454  -12.04983121447031
N        -7.55061652578160  -10.34605897374085  -13.31229043085089
C        -7.60045011983756   -9.41647788029880   -9.47938162897888
C        -8.43512662668932   -8.51995654318873   -8.87452810481541
C        -9.02829737238616   -7.73771668905534   -9.92248315965376
C        -9.92959007229268   -6.67489038925563   -9.90460814030421
H       -10.31066372439413   -6.29625694032783   -8.96924489720270
C       -10.31123159314634   -6.11346565009747  -11.10244535386501
H       -11.00677490576195   -5.28862632517017  -11.11037980505105
C        -9.80361797579568   -6.58474142994712  -12.31278951455822
H       -10.11327669938313   -6.11744817306315  -13.23484897503485
C        -8.90331771242542   -7.63041181100457  -12.35917969892420
H        -8.50731353698684   -7.96749489968221  -13.30475359740226
C        -8.52904945819151   -8.21056354576162  -11.15588652250371
C        -8.69748659153146   -8.33508841277662   -7.42279878899654
H        -8.71291487365479   -9.29161777946588   -6.90687238608532
H        -9.65198367961896   -7.83595055385191   -7.27848740512812
H        -7.91985404335743   -7.71901265483535   -6.97031634942259
C        -4.31874769133029  -10.98948926237993  -11.48643509051325
C        -3.14371820645430  -10.41151226857626  -11.10246740084267
C        -3.34261941659130   -8.98860321774793  -11.17485400921142
C        -2.50631100654455   -7.90888957737472  -10.90406154060070
H        -1.48909895131816   -8.07254056147756  -10.58578099831510
C        -3.01081468298436   -6.63524225441927  -11.05778089601419
H        -2.38172069894486   -5.78272692594489  -10.85386351565493
C        -4.32206383658493   -6.42357552653439  -11.48177799829626
H        -4.68513681506927   -5.41401760744982  -11.59728289957222
C        -5.16897378247091   -7.47890147076101  -11.76407441759008
H        -6.17902874786183   -7.30370106174015  -12.10342042970217
C        -4.66842460041518   -8.75972574554094  -11.59556186725973
C        -1.87513224668724  -11.05530426643523  -10.67650952922668
H        -1.57775287620124  -10.66165287315266   -9.70541694155883
H        -1.08086855197728  -10.82572915268715  -11.38671469239343
H        -1.98381430049350  -12.13306255925445  -10.60524640677883
C        -8.71254898566229  -11.13292311563638  -13.51135189672490
C        -9.09833179415962  -11.05981394460502  -14.82161682511473
C        -8.13664505365664  -10.22987683384418  -15.49215223391924
C        -7.99770198297965   -9.83841198247510  -16.82277881551601
H        -8.71173716843318  -10.16015275645517  -17.56442321935966
C        -6.93069652729894   -9.03635897763423  -17.16189707963760
H        -6.80212466973195   -8.72093879833485  -18.18566907862754
C        -6.00849384588322   -8.61705322388883  -16.20216136038355
H        -5.18574058344177   -7.98588837517293  -16.50075662592769
C        -6.12450605034472   -8.98867235889866  -14.87764292992177
H        -5.40737100988992   -8.65664489961011  -14.14362246002801
C        -7.19296568511100   -9.80241633012151  -14.53415407820733
C       -10.27501447963603  -11.68095913472986  -15.48558243623853
H        -9.95727700327600  -12.50985913734056  -16.11798813270884
H       -10.76708628297500  -10.94759580083985  -16.12258568845034
H       -10.98982624994455  -12.05475345584235  -14.75769751233968
C        -7.23700378873861  -11.53205299949002   -7.53479683915948
C        -7.95509306051927  -12.69734015244307   -7.79422765179099
H        -8.00429574098461  -13.07946367344025   -8.82056709756336
C        -8.56591777908122  -13.38250332272310   -6.76020250378449
H        -9.12184608177370  -14.28501828406427   -6.96480723649799
C        -8.44232566027941  -12.91490926338254   -5.46128391201742
H        -8.91188057499669  -13.44946922429592   -4.64967523912311
C        -7.69945080609716  -11.77402039862452   -5.19691295650057
H        -7.59034439527943  -11.42537462775952   -4.18082918687416
C        -7.09090337359713  -11.07974233272309   -6.22734030963831
H        -6.49844169612027  -10.19962559378283   -6.02147688642265
C        -5.07991667350094   -9.81489064207975   -8.26777765480279
C        -4.96646717943498   -8.43133709531695   -8.31004427953341
H        -5.75965736128653   -7.83133708645421   -8.73266948490324
C        -3.83096178689926   -7.82047344506253   -7.80774206082324
H        -3.74797961146165   -6.74441443602508   -7.83647580507429
C        -2.80581060307354   -8.58159186332418   -7.27245174651778
H        -1.92321416810366   -8.09863804218890   -6.88160171174289
C        -2.91113275896003   -9.96410203523869   -7.24005002103384
H        -2.11194027023673  -10.55923194150335   -6.82327040701623
C        -4.03953018217787  -10.57971222027499   -7.74439039586162
H        -4.12933145960177  -11.65888522968770   -7.73435791925236
C        -3.76676408832283  -13.86389180861096  -11.13464829618706
C        -3.90143564156358  -14.29348546002245   -9.81656367765373
H        -4.70554889568385  -13.88940777805566   -9.20938335068949
C        -3.02829181732815  -15.24050400755215   -9.31651156863201
H        -3.12452152417773  -15.58142841794635   -8.29692211917516
C        -2.03903110122146  -15.76493018462663  -10.13505704336001
H        -1.36258971377390  -16.51120305479435   -9.74737504956557
C        -1.92239996175497  -15.35111269760431  -11.45370412550045
H        -1.15859457509533  -15.77609146421218  -12.08709068353222
C        -2.78826683868197  -14.40128348341473  -11.96458579515889
H        -2.71315665386060  -14.07650284880402  -12.99316211250781
C        -5.08063558199520  -12.70919250285051  -13.52256143975841
C        -4.30422714739094  -11.90782422670820  -14.35405097558980
H        -3.51452534457739  -11.29796563759412  -13.93625137062275
C        -4.55360538809622  -11.88921745633714  -15.71552264352512
H        -3.95617861470769  -11.26212355515694  -16.35964998862459
C        -5.57117415966145  -12.66161764521307  -16.25018597957471
H        -5.76977249715929  -12.62836417273788  -17.31033464315984
C        -6.33020294508469  -13.48087302438343  -15.42825355933613
H        -7.10997935048859  -14.09620773502296  -15.85296678771619
C        -6.08975897201289  -13.50594762373576  -14.06666638730725
H        -6.65653354469417  -14.16310956708032  -13.40504125274963
C       -10.37764353108513  -13.36559986244613  -12.63458237152926
C       -11.68326453856588  -13.50569038147435  -12.17596361842031
H       -12.10537527406533  -12.77215483936448  -11.50323118845587
C       -12.43659815681196  -14.58994739716762  -12.59124072550995
H       -13.45138073809133  -14.70028910732862  -12.24023452093277
C       -11.89041077895224  -15.53545342988510  -13.44359129523635
H       -12.48110813282238  -16.38317272179475  -13.75506952042213
C       -10.58329388230834  -15.40265719214427  -13.88878642694492
H       -10.15697414464986  -16.14789606949789  -14.54317569853235
C        -9.82393479051463  -14.32471617198762  -13.48087169097881
H        -8.79978459642497  -14.20906132513350  -13.81072379602362
C       -10.37257286404526  -10.87358120586318  -11.18898058769537
C       -10.43685979259715  -10.93137380448998   -9.80056478627513
H        -9.81018174619803  -11.63786527464200   -9.26716820246484
C       -11.30072784525202  -10.09461795199579   -9.11746140232273
H       -11.35659340870671  -10.14408988357619   -8.04067542571936
C       -12.09176966103287   -9.19904874374286   -9.81806773531482
H       -12.76719046632084   -8.54665412393569   -9.28625819775580
C       -12.02408747796347   -9.13783038271038  -11.20182007283043
H       -12.64245927654881   -8.43822255579512  -11.74285719075873
C       -11.16760934215550   -9.97340724457483  -11.89290432976330
H       -11.11101225166843   -9.93449721878518  -12.97176864839271

