64
CSD_code = UJUHIQ | q = 0 | S = 0 | Stoichiometry = C32H25N3O2PRh | MND = 4
Rh       -2.08969060897078    6.49151487605665    9.10059196486904
P        -4.03593040462244    5.59691565185110    9.80051956234875
N        -0.01020106984189    8.22433390582613    9.83666284657246
N        -0.37285614316584    7.46639633632443    8.77671649484560
O        -1.92497736569057    7.43907229757843   10.79973141508222
O        -2.31123652694388    5.12955721421658    6.46039009324204
C        -0.86516291002372    8.14056800527367   10.83350492814449
C        -0.57451108172068    8.91985015736741   12.05299025203952
C         0.68318785511554    9.47259567757616   12.27801752833738
H         1.46167019455827    9.32124089690107   11.54708745155455
C         0.92480454119144   10.19033240373774   13.43382225355698
H         1.90207589489507   10.61649309784322   13.60860558670722
C        -0.08174566395167   10.36230620753802   14.37137527105746
H         0.11138627120969   10.92446198173412   15.27355313607085
C        -1.33381805799361    9.81035088307435   14.15316312688408
H        -2.11855396655742    9.94243504056555   14.88396759641834
C        -1.58133553353993    9.09023734118437   13.00043296719817
H        -2.55250953943134    8.65356244363939   12.81701878748014
C         0.37360860995901    7.48320848338615    7.71441119576256
H         0.08630240600721    6.83352102112603    6.89778781206428
C         1.57987829904714    8.24281867123915    7.45196388500365
N         2.17758225913121    7.89854467539740    6.30189480805210
C         3.28168764921109    8.51723906456806    5.94847404514752
H         3.71828082992300    8.19147941887950    5.01237345896722
C         3.87334066286227    9.52566831491562    6.70014699780612
H         4.78231819182998   10.00169477819835    6.36633911059905
C         3.25409659391349    9.89987528343749    7.88250457073119
H         3.67047816862694   10.68696426814445    8.49562739234977
C         2.09319456618363    9.25598447638344    8.27044270358860
H         1.57324181564755    9.51835363340497    9.17587307992678
C        -2.19383547981163    5.65196136167612    7.48029458999217
C        -5.38697348090202    5.81637787563799    8.59844932080927
C        -6.41717268729576    4.91541139233014    8.36774775841743
H        -6.46055015825467    3.98688505356447    8.91808425030822
C        -7.38190966929614    5.20330524529952    7.41672240680083
H        -8.18067434066740    4.49914499992012    7.23458874958439
C        -7.32530544840952    6.38511424136847    6.69731275944025
H        -8.08111959867647    6.60253015225160    5.95719255392485
C        -6.29261311882565    7.28416098981199    6.91732638663984
H        -6.24208272600967    8.20078626992280    6.34834716552166
C        -5.32438286190439    6.99641107614749    7.85930194655746
H        -4.49170884492023    7.67690443031703    8.03571418899571
C        -4.72538234162852    6.32202200317335   11.32439552230958
C        -4.02358681507217    6.07471835361771   12.50198399051826
H        -3.15310950219636    5.43201782859066   12.47117325092073
C        -4.42706590055145    6.65655271432009   13.68770613214401
H        -3.87594832601183    6.46761764624114   14.59768752259244
C        -5.53317996353603    7.49326739510665   13.70609174171297
H        -5.84684621819013    7.95339443065663   14.63175197771579
C        -6.23045460631660    7.74526593683506   12.53689814336681
H        -7.08956748877442    8.40042793495940   12.55084530754284
C        -5.82720285786174    7.16711834677580   11.34469285440209
H        -6.36833358425708    7.37301416234317   10.43142408591941
C        -4.06662289128792    3.82704670794572   10.22592152545716
C        -3.00234976595178    3.03796346225428    9.80437265785562
H        -2.19224586609392    3.50532948102463    9.25220144374167
C        -2.97689920381738    1.68701628287296   10.10110844373934
H        -2.14852143866620    1.07651014672657    9.77341974468163
C        -4.01345647729690    1.11976600698469   10.82437292353119
H        -3.99572776318744    0.06524925516844   11.05695677214313
C        -5.06857282896516    1.90550359017142   11.26134534876208
H        -5.86962561280706    1.46286424473605   11.83554038023666
C        -5.09641066991744    3.25687232230274   10.96885645599012
H        -5.90796739921002    3.87639215105935   11.32678137527098

