29
CSD_code = UJUHAI | q = 0 | S = 0 | Stoichiometry = C12H11Br2N3Ni | MND = 4
Ni        2.96684060811502    7.33338128731074    1.45885679328247
Br        2.58114696055200    5.25950401429808    2.22602601863515
Br        3.33790277753031    8.72683796293008   -0.21526216784824
N         1.06857910337617    8.26815863653206    2.38811396653862
N         2.11648531701484    8.17745971133898    4.48202648198229
H         1.95216808343373    8.16755879303101    5.47906957370008
N         3.88032560786346    7.97792376562451    2.91515220387700
C        -0.04314376952096    8.33020098258069    1.66067413043281
H         0.10153539920482    8.42695587048423    0.59184486988446
C        -1.30946080983852    8.28279568513930    2.21377032730508
H        -2.18166650679815    8.32979175106215    1.58308309377078
C        -1.42450119880770    8.16781597909584    3.59262732435681
H        -2.39481528049830    8.11830618882187    4.06263764614042
C        -0.27703308303262    8.12324939807308    4.35981403007021
H        -0.32689311609285    8.04140829586234    5.43478294944010
C         0.95814752980025    8.17714675266075    3.71177477450691
C         3.41319965499609    8.16287347812260    4.09896692657835
H         4.11023189013634    8.31388248383253    4.92433170448258
C         5.26741202380716    8.08477556087890    2.69535634245128
C         6.02978124296326    9.07436665839456    3.31071799110947
H         5.55619373994492    9.79911566662229    3.95682354133603
C         7.38582995186241    9.15632850101187    3.05107126564983
H         7.96929824353583    9.93236363531583    3.52302284923049
C         7.99007258651914    8.26222745272429    2.18392139227934
H         9.04722430463301    8.33738343679448    1.98123759984878
C         7.23098270201459    7.28433445284562    1.56003638353572
H         7.69430561285623    6.59403059320055    0.87226085382434
C         5.87597304287305    7.19733351860012    1.80655648927507
H         5.27547738155853    6.43528948680969    1.30640464432116

