47
CSD_code = UJUHEN | q = 0 | S = 0 | Stoichiometry = C22H10CdF10N2Se2 | MND = 4
Cd        3.56655559534736    6.08197688261943    3.94262379173233
Se        2.77138934695258    7.42465537145493    6.04803508865905
Se        4.67583206891894    6.09048427428156    1.57219644281490
F         2.74304245484501    8.47743063172919    3.12662098934080
F         3.34470433638543   10.94193086752955    2.21228801660599
F         3.96473316284056   12.96524278485719    3.96712819731993
F         4.01918014638223   12.44169417965488    6.64976098605524
F         3.48549099834640    9.93282973271984    7.55596038164632
F         5.34161803051048    7.95233783746445   -0.68467692237744
F         6.40396665977141   10.45792694375079   -0.65496910295685
F         7.02958328683041   11.64668361625028    1.72557367618503
F         6.58826128730760   10.28047615603337    4.06993609845713
F         5.60321781290083    7.77507442446219    4.02826534562049
N         5.16129329047860    4.62412900618679    4.99660501479608
N         1.46324069622046    5.06756777168852    3.35702723086310
C         3.11878155111219    9.14097801473484    5.37786415115941
C         3.06855690754916    9.45668037728047    4.02191543323246
C         3.36351553324050   10.71936416357568    3.53481534251341
C         3.68826165268569   11.74094678946377    4.42034612998621
C         3.71825911105602   11.46753262633517    5.78879107777787
C         3.44037310271086   10.18991002641002    6.24665566053896
C         5.42936265512509    7.80324800986953    1.65439843045215
C         5.66020358961651    8.52580411462851    0.47781988946231
C         6.19600225540032    9.80280467816233    0.48902320082282
C         6.51985540943267   10.41362186318911    1.70163905796012
C         6.30736884629867    9.71689062484812    2.88566305300618
C         5.78964834902496    8.43278914003084    2.84372620051552
C         5.84856496176328    3.74228052023265    4.27649865642952
H         5.50931755477892    3.58480267817013    3.25798376155655
C         6.94544539844504    3.05832935365859    4.77352892058489
H         7.47269587857969    2.35362049111699    4.15029921950570
C         7.34823405782350    3.30477123629493    6.07691885678000
H         8.20204623536618    2.79372742741929    6.49623489924937
C         6.63265934807719    4.22320190207793    6.82881611318688
H         6.90957999201616    4.44880675905783    7.84618703395159
C         5.54732835374347    4.85801038371317    6.24727800313204
H         4.96318697090303    5.58295650464304    6.80407821377367
C         1.21611214084494    4.71696099179206    2.09850147699089
H         2.06244193771916    4.73136898207353    1.41885191710669
C        -0.04502994855260    4.35457759570854    1.65455202072545
H        -0.19768890836026    4.08228433987476    0.62248990957981
C        -1.09525844503450    4.35695211815432    2.55914607105379
H        -2.09283445415611    4.08609548243895    2.24731738546093
C        -0.83761947092416    4.71665016950541    3.87286312904676
H        -1.62305710884730    4.73311327773221    4.61159178785271
C         0.45575394411830    5.06484832130165    4.22487951164835
H         0.69582342342772    5.35813055605483    5.24155025043079

