47
CSD_code = UJUNAO | q = 1 | S = 0 | Stoichiometry = C15H26ClN4Zn(1+) | MND = 5
Zn        1.99156458500045    1.48281973855815    9.70902405809264
Cl        3.55078519043843    1.59109732878747   11.18912814992775
N         3.13149196897818    1.63555882026440    7.85605173066796
H         4.07272238056261    1.74469806233655    8.24015559146681
N         1.10402534418068    3.46992959298786    9.86053720508340
H         1.71463570451021    3.87574453407866   10.57324646756324
N         0.18529908848126    0.95963629894558   10.83522593433126
H        -0.60345225132426    0.66872284709588   10.25733321440658
C         2.92977627512729    2.75981293794364    6.92301835275480
H         1.87787755480026    2.78276171819862    6.63166584520414
H         3.52961694925719    2.60286920002404    6.01733005966335
C         3.08501571143562    0.33331362902138    7.18642509693019
H         3.92618051843887    0.20639191868768    6.49505877047237
H         2.15595657916295    0.27823652698243    6.61076637229337
C         3.36397657685069    4.04521131218864    7.57514060523044
N         1.93650598899708   -0.62451003723731    9.10416996443790
H         1.11570098545834   -0.88590011920341    8.55773458707359
C         3.10654296348090   -0.77205251295667    8.23625518641294
H         3.13083013186688   -1.75409021108558    7.74936710390239
H         4.00079358611977   -0.66943574644580    8.85657616890266
C         4.67319944023590    4.46914216100125    7.36685916239785
H         5.31951035167250    3.88953721576438    6.72351031889600
C         0.45319262018245   -0.12695250276121   11.78734823899192
H         1.34297558398812    0.14208231269328   12.36007109141594
H        -0.38934511245409   -0.23433725646698   12.48249530335057
C         2.53022600778133    4.80198524989704    8.39995574989991
C         1.11363318616758    4.40753654066470    8.72195373360915
H         0.61851719019962    3.92847178143331    7.87503136101922
H         0.54587475162146    5.31062996531426    8.98029157932899
C        -0.22548136185510    3.32737538314592   10.45944191653478
H        -0.55716178938486    4.26087632206063   10.92884985093050
H        -0.93275476157603    3.07277266039617    9.66406444105276
C         5.16097462146972    5.61901799193307    7.95772521437073
H         6.17818857475039    5.92851094753027    7.77798991143030
C         1.98330115829353   -1.51025224730527   10.27536678567806
H         2.16680419835619   -2.54486252641266    9.95823690806972
H         2.81518418959028   -1.18799185242170   10.90484814923969
C         3.03232091825615    5.95892290383214    8.98874141166598
H         2.38759723405766    6.55117587556874    9.62207159709720
C        -0.19267075816420    2.21028247686332   11.49643528152257
H        -1.16647764709004    2.12932271965091   11.99374258201862
H         0.56558538387636    2.43449486356308   12.25133591322911
C         4.33404610632212    6.36994376213670    8.77463391641159
H         4.69889445743823    7.27203016580808    9.23946210301801
C         0.68520316257259   -1.45579462443696   11.07487515921612
H         0.72617836115687   -2.23880456171821   11.83236439635843
H        -0.16266189928854   -1.67783156690725   10.42008745842777

