48
CSD_code = UJUPIZ | q = 1 | S = 0 | Stoichiometry = C12H30ClFeN4(1+) | MND = 5
C         7.05355819038434   11.99783637961526    3.51120009793983
H         6.42865291310272   12.01827043049647    2.60885298355708
H         7.62556209172975   11.07116845710269    3.49662987571638
C         8.03039717322255   13.17425865102333    3.47804991207206
H         8.65557903637426   13.08653294875140    2.57750416057108
H         7.48181007096038   14.11491651166906    3.40318879479336
C         9.95770655062847   12.27166719209409    4.61970350955558
H         9.58932664286835   11.26597577255283    4.43386103919924
H        10.49051618583328   12.27547672396912    5.56772362186790
H        10.65782092172060   12.54130218616931    3.81956077442345
C         9.38229153689181   14.55900032388332    4.91382640717523
H        10.02527791647837   14.87571231009068    4.08436624275742
H         9.96598710327805   14.56163839324001    5.83078386879252
H         8.56940659680827   15.27305484845365    5.02456948385419
C         5.63784545096030   10.64761438556008    4.92185288814394
H         5.27652523205986   10.24152347937633    3.96801485735022
H         4.78149749764792   10.73788197747759    5.58873181922511
C         6.63723088806266    9.66965781235144    5.54151188677553
H         6.13135761604346    8.70604164851984    5.70039438541258
H         7.46499972229700    9.49238362163229    4.85249570917354
C         8.46290581773948    9.55427676162826    7.10893657738556
H         8.34570383223030    8.47255230525158    7.24236817274080
H         8.85578130012731    9.98071624328672    8.02829322218195
H         9.18177771719540    9.73689525669568    6.31345489862974
C         6.26637244442785    9.98987522922275    7.90606134776901
H         5.30283075495544   10.44489344900946    7.69081146838667
H         6.67752517682133   10.45638305110094    8.79823278945504
H         6.11302667537303    8.92194442228184    8.10426249675123
C         5.10974727562009   12.97075914655917    4.55424516984758
H         4.33572045425902   12.56258383579824    3.89134515475681
H         5.51753076681023   13.86108340777187    4.07762930709374
C         4.47374338193425   13.37789208729639    5.88411572074774
H         3.69594354358220   14.12963006132168    5.68500852508114
H         3.98456694985166   12.51753211311569    6.34442246216185
C         5.81817469957861   15.27643466593712    6.53134962685527
H         6.15783669681576   15.37989392116485    5.50396578315523
H         6.62040705627423   15.59127127925952    7.19458574544622
H         4.95506722282172   15.93632227951409    6.68244048885147
C         5.00160098977409   13.79167969237183    8.19776499617475
H         5.77562879058058   14.15735593369739    8.86758753290861
H         4.79241692039669   12.75491478026490    8.45163466570411
H         4.09325171835171   14.38662547668912    8.34868323829726
Cl        8.47805364571749   13.02236048771390    8.01952438553738
Fe        7.38230132783516   12.52817724725365    6.41388667667662
N         6.20632774778173   11.99564343674785    4.72069713805686
N         8.84460795871477   13.21672058795777    4.69491319394522
N         7.18909740138413   10.19826533821174    6.79105468672330
N         5.48150239569324   13.88320344884692    6.81930221032232

