61
CSD_code = UKAJUM | q = 0 | S = 0 | Stoichiometry = C27H27MoO3P3 | MND = 6
Mo        8.66309589314406    7.65642245770746   16.06264643147499
P         8.64530113148059    7.31789397455692   18.37928994086156
P         7.81770384710032    9.73342894726023   16.73417011628928
P         6.41330722236644    7.06863245271818   16.33595402656638
O        11.54414726755892    8.75144249874318   15.97356238880761
O         8.26731115840033    8.17211106745297   13.04830409362231
O         9.63022032458461    4.77300062085870   15.55363144801941
C        10.48091605403273    8.32726048640183   15.99429373649635
C         8.43618999496048    7.97916073904493   14.16412744073385
C         9.27718079179100    5.84897040196160   15.72143156546427
C         8.17016044876998    8.84172638067300   19.33577895502913
H         7.12055621345602    8.74381852857970   19.63787498249304
H         8.78134362339656    8.91658902861647   20.24127483944905
C         8.35839046788242   10.07635299594717   18.46283812470697
H         9.42643378427189   10.31482547428933   18.37349912948281
H         7.84094712908975   10.95012705603548   18.87731489265981
C         5.96434763420776    9.74923917954022   16.90069097862812
H         5.71441873400256    9.68088693479056   17.96625502227980
H         5.56716906201331   10.69443834760748   16.51612351414971
C         5.36645314693323    8.57313106737017   16.13782588460285
H         5.38347710299735    8.77681589521947   15.05897722797395
H         4.32932740309249    8.37962758782582   16.43784795052050
C         6.00251120348790    6.53667999612558   18.07131727447419
H         5.50094691665798    7.37079457180318   18.57662008616203
H         5.31133196986953    5.68783622179888   18.04394780012687
C         7.27994644874340    6.15738485736907   18.81092642152747
H         7.63587207964494    5.17670167716007   18.46865911681922
H         7.12230737476339    6.11041409653945   19.89529537955253
C         9.99799290045472    6.62270396861120   19.36273704579535
C        11.14997501471923    6.22844087792821   18.69330425010272
H        11.20308022821080    6.35750698047848   17.61922236674741
C        12.20992874589704    5.68149849600799   19.39509302447167
H        13.10427958112072    5.37915463697468   18.87086324488635
C        12.12270839479320    5.52435886972960   20.76791912357399
H        12.94899336013059    5.09845988857301   21.31787794900337
C        10.97425524294881    5.91310377029387   21.44069615511494
H        10.90709244000141    5.78704097636094   22.51190779943316
C         9.91441550679974    6.46111226074202   20.74386566055510
H         9.02054546629054    6.76348993615751   21.27418432027157
C         8.17766961008914   11.32884994948821   15.95618396720941
C         9.06685538629793   11.34249581318516   14.88850575627631
H         9.49497501908797   10.40699103141029   14.54984993082199
C         9.39483802872765   12.53676790229807   14.27103433311322
H        10.08607747676105   12.54226215170213   13.44137142513957
C         8.83561990664692   13.72211088924012   14.71731989450929
H         9.08937568339980   14.65534149685259   14.23631008935613
C         7.94817428109488   13.71450170681551   15.78263180751328
H         7.51360325196623   14.64100178490253   16.13008865681715
C         7.61864669148224   12.52426975837835   16.40233353646588
H         6.92605700085284   12.52463611326909   17.23425375331528
C         5.48862725949523    5.89229384982916   15.31526233284942
C         6.14909351669386    5.30546524284376   14.24286319641134
H         7.18804294938910    5.55547747707332   14.06594880705821
C         5.48363385796180    4.41489817954713   13.41865561545904
H         6.00123245064958    3.96071119880004   12.58680801802283
C         4.15598640111754    4.10690456054189   13.66257573936656
H         3.63480800452931    3.41127372479710   13.02137981170933
C         3.49171786638888    4.69026276130363   14.73071749961360
H         2.45504727542270    4.44944339006042   14.91860024608374
C         4.15237857297506    5.58036295064650   15.55559263531552
H         3.62835819808515    6.03349386097726   16.38736323855055

