51
CSD_code = UKALOI | q = -1 | S = 0 | Stoichiometry = C18H22BMnN9(1-) | MND = 6
Mn        2.05072701481394    7.98575029334025    9.82481221566494
B         4.77739239830489    6.57186597115546    9.18829199726647
H         5.80632377745964    6.03761430907219    8.94854947059977
C         3.29662657685500   11.31930316841266    8.94533530420235
H         2.42308972175491   11.19090592896604    8.30681292276635
H         3.83898293881379   12.21465721300553    8.64734811288622
H         2.93484115206144   11.43322986669479    9.96677755289288
C         4.18857160239035   10.13475874384959    8.84316576280652
C         5.52503506958009   10.12195274484848    8.42859109034564
H         6.11434500847496   10.96344285273950    8.12034389013728
C         5.92688558682823    8.80262754930462    8.49876247574869
C         7.25610037355073    8.21877517870509    8.17034877060850
H         7.69148660200385    7.72920582825815    9.04129396555651
H         7.92543521968632    9.01066813398953    7.84109142205875
H         7.16941614457598    7.47789751994908    7.37581109819490
C         6.33560556052905    4.98828345187001   11.41397106486179
H         6.24657573344693    4.21887532606665   10.64729647320505
H         6.64608185602216    4.52136748856243   12.34623781701987
H         7.10666638493606    5.69084072028152   11.09822806027911
C         5.03643034215246    5.68453168300779   11.62096770712499
C         4.28287381099701    5.77566568924105   12.77457096308706
H         4.51074508698601    5.35116666700460   13.73284588705505
C         3.15896017247965    6.53715776841110   12.43526581387055
C         2.03732313911741    6.92166791106593   13.33154729217801
H         1.95033319902107    8.00651397479683   13.38436880234414
H         2.20889042084115    6.51954934299508   14.32828656487965
H         1.09378870756951    6.54169512064329   12.94090594133630
C         0.18266045188621    6.03894430190583    7.34470967764591
H        -0.35169375135710    5.85625133918661    8.27655310742837
H        -0.19545552058966    5.37451161117523    6.56999579524425
H        -0.00611176994575    7.07446594310774    7.06307972569616
C         1.63963193995692    5.81296336904992    7.53271359148976
C         2.44423900440878    4.89839610627329    6.84396718102278
H         2.13631878064398    4.21857346479181    6.07360246670186
C         3.71521110264814    5.05303775694872    7.36133920339119
C         4.96257314669401    4.33086210868986    6.98976512365886
H         5.71810377828079    5.02491254012963    6.62186097576978
H         4.74028460242961    3.60714312813195    6.20855174679649
H         5.37806508772412    3.80522076130244    7.84914845562196
C         1.77447884676895    9.37800394004792   11.13980941353499
C         0.43845758075011    7.11896339666605   10.45215975451020
C         0.97875952397551    8.99897373787794    8.57240854514437
N         3.81772983229208    8.89210809262975    9.14275465733279
N         4.87414419197591    8.08396058964763    8.93339625546259
N         3.24091503380849    6.87911258708759   11.15161009707220
N         4.38124824499265    6.36059925075197   10.65787511325224
N         2.39126380814804    6.47376332375994    8.41010336418768
N         3.65153017358554    6.01135934254518    8.30548643284052
N         1.79535202524590   10.19170278497146   11.96168089292198
N        -0.42357638656314    6.44074938631287   10.81971595199484
N         0.47383667099089    9.56255069077054    7.69748403230249

