92
CSD_code = UKASUV | q = 0 | S = 0 | Stoichiometry = C37H48MnN3OP2 | MND = 6
Mn       -0.81041699447656   -7.78390409675048   -1.89350860181769
P        -0.48392522778883   -7.22688151566684   -4.08786187855285
P        -0.84969615472412   -7.43195668477147    0.35299588017828
O         1.93615190331576   -8.75019314015896   -1.73049061034240
N        -0.18733760588551   -5.74452622650121   -1.75055936750504
N        -2.71456131792946   -7.27605725390829   -2.00073620381977
N        -1.55186062946124   -9.52621420061604   -2.02087236182948
C         0.76388395257326   -5.91909808469075   -3.92521091071211
C         1.68893433137585   -5.53631341645561   -4.88375347263681
C         2.60506210188134   -4.52514367909621   -4.62959503283913
C         2.58785183050078   -3.92341031383926   -3.37445763096268
C         1.67723789048809   -4.28900223197690   -2.40789737462944
C         0.72014396612627   -5.28461709848824   -2.66189836792432
C         3.58315036638457   -4.09658057426985   -5.68350940571665
C        -0.61371573515934   -4.97987220430334   -0.70515529423819
C        -0.72767992299442   -3.57871336026251   -0.73040317430177
C        -1.25077390344983   -2.89290790212810    0.34487668611577
C        -1.69530281926464   -3.54855442849164    1.48862080111168
C        -1.61233873701056   -4.93537038538804    1.52257538466986
C        -1.08793511732117   -5.64231219954125    0.45508696442669
C        -2.26406333765269   -2.79520691069397    2.65517158316843
C        -1.81843630728212   -6.26961214858269   -5.01046948792714
C        -3.04412368919219   -7.11479575770136   -5.35911529841156
C        -1.33103715129909   -5.50642684291934   -6.23790004687544
C         0.22312584901150   -8.37779354855247   -5.37660175201942
C         1.59023090664825   -8.89015417206864   -4.93172967541262
C        -0.70496274876154   -9.56702400904692   -5.61664841703170
C        -2.10035047403435   -8.15228877390243    1.53832631256494
C        -1.92113104225386   -9.66727839825715    1.58747588205776
C        -3.53420297435397   -7.78848771357748    1.16399375110528
C         0.75232864887632   -7.64177980364334    1.32074817191355
C         0.63765390895087   -7.48412474911485    2.83498418642608
C         1.77439960351947   -6.63405429265680    0.79384416950922
C        -3.24695964065531   -6.05423964973604   -1.99817600676550
C        -4.59547877343848   -5.79699036916415   -2.12702968060848
C        -5.47487916624897   -6.86652555265610   -2.27879523437081
C        -4.95078384999167   -8.13740581233175   -2.29271293741591
C        -3.56849029475219   -8.32261771570156   -2.14993197118792
C        -2.91631053816225   -9.60614033199815   -2.14699853577026
C        -3.59165750581138  -10.82602690675012   -2.25305289380619
C        -2.89475407952921  -12.00936759944515   -2.23028407124182
C        -1.50388430033677  -11.93649644419055   -2.09191182475529
C        -0.89730850701268  -10.71156666843970   -1.99327555688783
C         0.84568515673522   -8.35347284091847   -1.81661686514249
H         1.71096041483009   -6.03155715441447   -5.84469562750356
H         3.31865735704659   -3.15969853525056   -3.14543875695744
H         1.72636705673749   -3.83511088801923   -1.42884086921745
H         4.46039656745391   -3.63798362070054   -5.23285010604873
H         3.12561757611100   -3.36468842138005   -6.35191586401313
H         3.90138483226184   -4.94598043764612   -6.28491437344967
H        -0.43353336939732   -3.03704911406191   -1.61833538940459
H        -1.32917746929737   -1.81532971824233    0.28978294857078
H        -1.97177760838591   -5.45814203655296    2.39880464526095
H        -3.29263346451580   -3.10224870007829    2.84729671092400
H        -1.68534276938236   -2.99124727437970    3.55820370051997
H        -2.25373963484566   -1.72455804051435    2.46592297625474
H        -2.11239982420612   -5.52597413426700   -4.25450653538437
H        -3.93724343180025   -6.49093880768532   -5.39480282066200
H        -2.92499347676781   -7.57704053502627   -6.33692080365772
H        -3.21012706145394   -7.90354279392021   -4.62730655401222
H        -1.02655445500571   -6.18498388226901   -7.03217775156372
H        -2.14266415981985   -4.88796794166452   -6.62044755312854
H        -0.49485663547568   -4.85716570980807   -5.98977445326759
H         0.33340934361548   -7.80467530215227   -6.30493564490437
H         2.08134667696483   -9.40769373134832   -5.75520257193550
H         1.47369268563930   -9.59115259089337   -4.10880657852602
H         2.23287943446698   -8.07882296362604   -4.59723138295440
H        -0.95090479557183  -10.04398742069985   -4.66793197549018
H        -0.20717471570773  -10.30349317634168   -6.24684340215553
H        -1.62850384242504   -9.27427930182916   -6.10687701937201
H        -1.88621314739111   -7.72690186307438    2.52447013154004
H        -2.61213759226749  -10.11094332464877    2.30385432631757
H        -2.11773804730019  -10.10326543455187    0.60850150710963
H        -0.90596512234168   -9.93438088966721    1.87466698986093
H        -3.62358052929813   -6.72795061360616    0.93090010015935
H        -3.86813861703618   -8.36240673110802    0.30294144364389
H        -4.20432160599138   -8.01444670559931    1.99346271892449
H         1.10377624400150   -8.65420241156732    1.08015757240484
H         0.07705278977670   -8.29222871451882    3.29791533734880
H         1.63821568952193   -7.48805173621397    3.26586863297936
H         0.17206766248315   -6.53260310768012    3.08591123758499
H         1.52354264269108   -5.63066583467444    1.13497483235883
H         1.80182250735215   -6.62969948572109   -0.29409643475990
H         2.76892683501225   -6.88470939344558    1.15898568329898
H        -2.56616829109537   -5.22438591924837   -1.87845162311031
H        -4.95095260956860   -4.77890548724536   -2.10937051446494
H        -6.53650383944558   -6.70286268936153   -2.38454503182988
H        -5.59832976695521   -8.99097312364370   -2.41328019396309
H        -4.66580392562727  -10.83303993006788   -2.35000833146632
H        -3.39878465448230  -12.95888492076680   -2.31160663417712
H        -0.90570287331871  -12.83318201170225   -2.06143687466053
H         0.17756915009111  -10.65969142973048   -1.87930965283300

