90
CSD_code = UKASOP | q = 0 | S = 0 | Stoichiometry = C36H48MnN3P2 | MND = 5
Mn        4.47350066994141    6.39413022845142    9.48469978167078
P         5.04513914412874    8.04024932148862   10.93354741111463
P         3.51373778430518    4.50558288725830    8.80913987700923
N         4.43140214314614    5.31818006095875   11.27290307330025
N         4.33963875480732    7.42619731673827    7.97213779327268
N         6.21243482115312    6.06352540846335    8.79823006086394
C         4.06958149314789    3.30476032216244   10.04641462100758
C         4.14106862355293    1.92756962546334    9.91414253147506
C         4.66126273716038    1.14153491182471   10.93229078861182
C         5.13864202323713    1.77726786833336   12.07659046871904
C         5.06868170298926    3.14450372828754   12.23014775247990
C         4.50697723606276    3.95040856199028   11.22709309830031
C         4.71527831645439   -0.35266548039501   10.80784853254939
C         4.19915857454713    5.97113197077900   12.44656153105185
C         3.62968708038473    5.38138441165104   13.59196198387209
C         3.38403381836421    6.12092604635702   14.72498966806106
C         3.67291002257403    7.48312865537972   14.79101245452962
C         4.18458925505949    8.09286895562566   13.65673472827864
C         4.43727315357684    7.36769409103767   12.50234387979067
C         3.38830185907345    8.26565903822872   16.03934052942016
C         3.67575389712219    3.60979526336991    7.18375431056154
C         5.16061545231644    3.36848892869735    6.92582539010492
C         3.07574488121876    4.44637162938087    6.05749058783924
C         1.65544174907038    4.57384199696345    9.05951311144278
C         0.98424533338497    3.21063659250298    9.16846953334089
C         1.39887711652855    5.41656109388635   10.30966854206619
C         4.27392058458962    9.74274618495267   10.88219175545390
C         2.75696067680192    9.57962457829314   10.85124001925398
C         4.76442045963375   10.52014414038545    9.66405338972699
C         6.85160428573857    8.40579456103841   11.30050258652666
C         7.12786278227121    9.60838705549033   12.19721956123617
C         7.44681600462609    7.14677543906506   11.92903677581403
C         3.21067230687991    7.97990934729899    7.48818793917737
C         3.17836054677820    8.85083774653337    6.42857250946445
C         4.37540403674105    9.19291808528840    5.78763464243901
C         5.53956485745155    8.59901655817919    6.22525326345810
C         5.50672841269852    7.70841072427345    7.29817300630315
C         6.60276270328132    6.91586419992679    7.78846469127981
C         7.90050158292281    6.90128068725573    7.27413955581068
C         8.81502907274109    5.98442833975542    7.74282134169066
C         8.39143932065392    5.06317737908815    8.70476567881994
C         7.10812069434653    5.13884041763347    9.19079769152535
H         3.79084810876532    1.45112774859699    9.00869905714161
H         5.58557809291741    1.18103437075366   12.86076678017527
H         5.48468607756289    3.60820360702235   13.11321666881728
H         5.64675410739691   -0.74050652699284   11.21660304118893
H         3.89283887677571   -0.80998086283261   11.36061230333625
H         4.63523560329033   -0.65900067751601    9.76704607245501
H         3.34989383589289    4.33763725942691   13.57069195905219
H         2.94252253968294    5.63592598237916   15.58546086666468
H         4.37122537553589    9.15840081455178   13.67697535167368
H         3.84561991553624    9.25195635004265   15.99276841718635
H         3.77239349501520    7.74463629169671   16.91560850771656
H         2.31281865647872    8.39394149549127   16.17394811355816
H         3.15232025594773    2.64910052684500    7.24637745473385
H         5.30362290803735    2.79857862791718    6.00852656798041
H         5.61533872959759    2.82196523041015    7.75030470943665
H         5.67675111470163    4.32282474812763    6.82292040283001
H         3.29945953307960    3.99355893909990    5.09230822377740
H         3.50341500388475    5.44917586610834    6.06979444779329
H         1.99452927202288    4.52717960818509    6.14808721478342
H         1.25334248482822    5.11117550958532    8.18981902820022
H        -0.07627565400872    3.33507778405398    9.38655799932618
H         1.43397553394376    2.62982311677902    9.97217577282632
H         1.07417415813530    2.64840770098666    8.24155779176263
H         0.34457112388301    5.68100101334846   10.39598185640973
H         1.68772086254966    4.86666512097845   11.20470975894737
H         1.98688987924340    6.34615281271922   10.27988743871323
H         4.55470157387786   10.28280439074881   11.79257661159014
H         2.26575505628734   10.55030342017539   10.79023925147626
H         2.40503429212044    9.06871273866208   11.74725457084685
H         2.46033656939852    8.99539402462021    9.97952747386164
H         4.37043049141779   11.53634809025381    9.67993784217840
H         5.85125662014498   10.57343704698853    9.63921429962354
H         4.43098689765103   10.04346379209838    8.74506680994102
H         7.32047894678321    8.56672359389212   10.31944649007343
H         8.19742517174044    9.66172237275757   12.39974953911651
H         6.61426524055929    9.50012972445489   13.15006800054978
H         6.82962977364887   10.54665737455355   11.73631638026694
H         8.53485245960503    7.19203986993309   11.92452364492081
H         7.10675533228221    7.04801525696310   12.95870972043286
H         7.13235703837444    6.26125896653526   11.38069779258155
H         2.28975271225018    7.69663186869192    7.99097786237932
H         2.23877221139329    9.26767469637904    6.10039028886817
H         4.37949666998834    9.88985797505069    4.96494322857919
H         6.48003661787220    8.81628515976053    5.74379026843172
H         8.17559251147800    7.60951358814764    6.50827445488491
H         9.82471636209758    5.96404455417538    7.36409989545917
H         9.06214807009111    4.30304825752929    9.07230622095191
H         6.75702351922171    4.42888190038440    9.93147709783023

