50
CSD_code = UKASUU | q = 0 | S = 0 | Stoichiometry = C19H23Cl5N2Pt | MND = 6
Pt        7.74365204987677    0.38962110721843    1.48843325598817
Cl        7.48259492259786   -0.76950799766483   -0.56551349936445
Cl        6.37390461290875    3.17017300002587    3.48253898629486
Cl        7.52287784590695    3.90293014660117    6.19550299344467
Cl        9.78044882402151    2.22163150504573    7.48370472888107
Cl       10.83580573775635   -0.29501533754932    6.04202908905063
N         8.97661067009849   -1.26165354065508    2.28416970976592
N         5.89045975800494   -0.81087674711506    2.12011844868331
C         6.61764206956507    1.91422941644964    0.66391936841702
H         5.61983707914791    1.90416068564566    1.10611007488658
H         6.52102694647055    1.73799828795529   -0.40813553360995
H         7.05482977135344    2.89978147302573    0.80964556237370
C         9.41058471669735    1.38672505857984    0.79267919498404
H         9.30786342607903    1.54596251524343   -0.28037664028502
H        10.27996235267447    0.75055157103604    0.97174521653421
H         9.56841305758037    2.34696043082742    1.28268955625865
C         8.14519930846906    1.11963749297835    3.37113041021733
C         7.65688469188325    2.20297958140437    4.09184922219291
C         8.14814029473446    2.54564704946984    5.35474765279907
C         9.15584684141088    1.78494236340376    5.94258844288658
C         9.62898105229445    0.66405118491543    5.27516057630913
C         9.12500158667273    0.32591341687156    4.01332037139887
C         9.54181854490106   -0.89524430139461    3.36261800997614
C         9.28469147798648   -2.53061544858556    1.68682512805462
H        10.23980163359981   -2.92563733500493    2.06135268356427
H         9.33339543636404   -2.39300878165395    0.60398765469231
C         8.16204051486049   -3.48884648699358    2.02189734535392
C         8.06260043824678   -4.01171447302206    3.30531225136581
C         7.02554765448817   -4.86657183887663    3.63402177801957
H         6.96088918455531   -5.27504322720300    4.63182849072646
C         6.07447777056850   -5.20050325139325    2.68392460361419
C         6.16415460628189   -4.67487306375706    1.40576202583845
C         7.20186838784234   -3.81851953601440    1.07466079271174
C         5.63641125364000   -1.16919836149024    3.51466759614406
H         5.50748297231560   -0.24848427500377    4.09121921430178
H         6.51593968043464   -1.69155292832115    3.90191274529767
C         4.40480983917778   -2.06279110250484    3.67847714239567
H         3.51442005109179   -1.51748978618792    3.35519474875860
H         4.51471227132507   -2.94211988087380    3.03850982561568
C         4.23326554995006   -2.50963536839259    5.12390921492406
H         3.34672917133371   -3.12963655365861    5.22829330800969
H         4.13127269949637   -1.64896170156605    5.78075115118641
H         5.09708695036268   -3.08712417799915    5.44481142342552
H         5.06401108830838   -0.35523625712223    1.73203183279632
H         6.03594595629252   -1.66168599704871    1.57002286693380
H        10.31304829318032   -1.50166649573023    3.84043687624457
H         8.80296446391824   -3.75370145919012    4.05025254248187
H         5.26599991248345   -5.86890164400882    2.94076214434123
H         5.42387731116198   -4.93080501949371    0.66187347342307
H         7.26766926962595   -3.40047391120504    0.08082594170289

