40
CSD_code = UKAZOW | q = 0 | S = 0 | Stoichiometry = C15H19AuClN3O | MND = 2
Au        6.98813721687249    2.77001333837357    1.01167886631337
Cl        7.35542528366193    4.96827045456784    0.77710778725652
O         5.14258434083081    1.98277473438304    3.53931491447607
N         7.33031413430616   -0.23645403693604    1.40587231367323
N         5.30442220862933    0.37057176737787    1.45904350051604
C         6.53087244019915   -1.30503688976750    1.67110346521623
H         6.88564376331276   -2.30242637902685    1.82602659930891
C         6.53699820473161    0.85052294597265    1.27795407715874
N         5.28782935126129   -0.95060784505827    1.70666520934359
C         4.11188665717124    1.15373387119322    1.56351046817114
H         3.27751099789826    0.46432532585654    1.70768768359879
H         3.96022293718016    1.73774324689242    0.65338766618667
C         4.22190550978917    2.09762112646380    2.77491272631233
C         3.15600050402393    3.17066921009979    2.89177599970503
C         1.75643639162394    2.62312237315216    2.60011371008848
H         1.52283074473579    1.78937685144903    3.25894733786093
H         1.65697881121702    2.29694082198918    1.56822494921494
H         1.02339988406176    3.40708149797626    2.77465205415690
C         3.51906276427776    4.26591892451977    1.87445904664156
H         2.87690816936306    5.12867979662805    2.03294156788738
H         3.38092277936499    3.92368331515706    0.85157914560285
H         4.55265997239983    4.58395039557150    1.99197839991824
C         3.20759225112023    3.75632997672163    4.30477555535380
H         2.97858346136766    2.99114890174195    5.04311282440651
H         2.48889337092981    4.56523368647245    4.40343578540381
H         4.20151579406222    4.14329494038522    4.51148885427804
C         8.77130169368518   -0.23888039125181    1.39576245773543
H         9.09368434237455    0.70440412068499    0.94302370004404
H         9.12475514033866   -1.07235904071878    0.78209958167637
C         9.30923692535258   -0.35201653635383    2.80364292180587
C         8.87379812847350    0.53463108713793    3.78118237381490
H         8.15877267067743    1.30565732037504    3.53048045304067
C         9.35352956698406    0.43253030772256    5.07413792202347
H         9.00905342898014    1.12519694823631    5.82651192082300
C        10.27254971319866   -0.55137532415983    5.39953988537166
H        10.64796841346600   -0.62885224105433    6.40879792881011
C        10.70971298463377   -1.43513713333372    4.42832288837648
H        11.42649618609961   -2.20363420929206    4.67644736245589
C        10.22577124598205   -1.33928039548541    3.13474378337240
H        10.56883161535897   -2.03136686466404    2.37845631259581

