44
CSD_code = UKEBES | q = 0 | S = 0 | Stoichiometry = C14H23AuClN3O2 | MND = 2
C         4.47339184866444    2.70936214849304   10.07140451587424
C         6.08738326640375    4.18278560375518   10.25141182588082
H         7.04731382015295    4.64426200500951   10.15410992859984
C         6.62508176207288    2.05480446401215    9.05407081413467
H         7.26644946934765    2.59214658708557    8.34922425098866
H         6.00757674104972    1.33722076246879    8.51185306371822
C         7.52044907950439    1.34371352823304   10.08250847363783
C         8.08990112521082    0.00090633829924    9.66460737163310
C         9.31175895256005   -0.31096243721957   10.53278175474945
H        10.11600307143435    0.39075864281414   10.32341800772968
H         9.66691004104959   -1.31820157958298   10.33363767312883
H         9.05577333535842   -0.23066246059338   11.58566090140964
C         8.47705900969908   -0.04105499205345    8.18535388123339
H         7.61299137026006    0.05250405119247    7.53373477679412
H         8.95202390941864   -0.99520249226428    7.97015965593669
H         9.18642320152815    0.74886106909523    7.94744412190953
C         6.98076691281760   -1.02603622557533    9.95343122424323
H         6.70226550412987   -1.00037070846567   11.00430768437120
H         7.34437184587337   -2.02307406937563    9.71817313406473
H         6.08915018158148   -0.83910775669013    9.35905920541023
C         2.78796235220462    4.04384898811573   11.26501822236112
H         2.82329704054734    4.99200031635704   11.80597436091396
H         2.47279924442735    3.24441349589206   11.93856075231808
C         1.80397561009392    4.15860670123185   10.08802135172034
C         0.32802434079080    4.12677780550092   10.44271873679139
C        -0.02855961708067    2.65260767071893   10.69854118518998
H         0.28374654696771    2.02581890996652    9.86628827382200
H        -1.10564636119577    2.55797854164900   10.81215366512456
H         0.44245066313917    2.27738968196946   11.60392998430459
C        -0.47369945543901    4.64069560958121    9.24462205419243
H        -0.22660551681469    5.67964664287754    9.03883965604429
H        -1.53909792054483    4.56690392507406    9.44481217153218
H        -0.24118020609403    4.05377974692247    8.36047602162245
C         0.01536903914691    4.96820454153703   11.68253312209473
H         0.48755336032592    4.56622455558356   12.57484829615886
H        -1.05944854049179    4.97422647064984   11.84750527051814
H         0.34128525649951    5.99673325177335   11.54317666862861
Au        3.37361769049971    1.11219961224806    9.63769821928601
Cl        2.11987138030938   -0.68076654883387    9.15757485970352
O         2.22003909528083    4.22839830346265    8.96293520887285
O         7.69710996827170    1.84071274882653   11.16318924606232
N         4.10467246659303    3.78132664781500   10.77080482203810
N         5.08194159736244    4.69730205345832   10.88092224716836
N         5.75497751715262    2.97251784903832    9.72610333806859

