95
CSD_code = UKEHUO | q = 0 | S = 0 | Stoichiometry = C36H54N4Zr | MND = 5
Zr        4.32030543689666   -0.86413138532092    4.82153087126771
N         5.61451873674492    0.85118420753151    4.66563818901804
N         4.81795808249959   -2.93165976293985    4.68982234781790
N         2.93545472499274   -0.64206973160612    3.33265147226185
N         3.34954697146392   -1.02268645107283    6.62276787824370
C         5.16139984414196    2.06469814239258    4.11086761946245
C         4.07809335340840    2.75310772890869    4.70077431846889
C         3.64425477372160    3.95526348750776    4.16483836537673
H         2.80852835753396    4.47141067686862    4.61507546129956
C         4.28105957282574    4.52286082214902    3.07792670991225
H         3.94965670796206    5.47268964599726    2.68463544538709
C         5.34385670343001    3.86043427686778    2.49525445296562
H         5.83407135321640    4.30390857774173    1.64098601444263
C         5.78334562607263    2.63763495450326    2.97938940933409
C         6.88252876664023    1.90343417473477    2.24263964067618
H         6.94530304370760    0.89027028110391    2.66249995219592
C         6.54765332149381    1.77166287144184    0.75387663871358
H         5.54730551916155    1.36483642846599    0.62343476699715
H         7.26617215779752    1.11574556707829    0.26456956976280
H         6.58883164089472    2.73757066428273    0.25676236811581
C         8.23102999393951    2.61123882542554    2.40394956891103
H         8.48017551603703    2.74957179477707    3.45378556881049
H         8.19741556447935    3.59306926499109    1.93668636224762
H         9.02391248372482    2.03373669005208    1.93150440028732
C         3.39930538078228    2.18659988808842    5.92625543659077
H         3.96766375031372    1.29353757238643    6.23561048601016
C         3.40191706305320    3.19439703104063    7.08009182213709
H         4.41103531228779    3.55458441095139    7.27039104648147
H         3.02692570193497    2.72552545219087    7.98776183034908
H         2.77169050574517    4.05213467719413    6.85610685815626
C         1.97143456537576    1.73693742458716    5.59625130028915
H         2.00665425561932    0.88861088329081    4.90380529804567
H         1.40539899113313    2.55104268876446    5.14565849604917
H         1.45866098827351    1.42643310899055    6.50551019779607
C         1.90465461860548   -1.62142676276316    3.06463429188539
H         0.89040736131857   -1.18135359618764    3.14657577625704
H         1.98186535388933   -2.46192104705372    3.75898883792289
H         1.99098747012843   -2.02895536815997    2.03923416976582
C         2.87423749607388    0.39350806626414    2.32228361208000
H         1.91136604104538    0.93887665243027    2.35372344877456
H         2.95543554994505   -0.03273270778010    1.30464826155036
H         3.67867512960805    1.11862549182500    2.45976025348978
C         4.27647828712175   -3.75635768394752    3.70787923882175
C         4.60903560489752   -3.50611975460559    2.34980485104351
C         4.16272743156352   -4.36339870389803    1.35995092810370
H         4.43503103765227   -4.19230349273749    0.33006284049757
C         3.38941713173649   -5.47076544681804    1.66263496027180
H         3.07536880039430   -6.14608136428052    0.88050748267759
C         3.00868777420710   -5.68914920199274    2.97081361253347
H         2.37595885707262   -6.53441147319249    3.19953348529456
C         3.41184559518297   -4.84124076461070    3.99070132555088
C         5.51122350504345   -2.33270746627388    2.00917907957620
H         5.24585246304772   -1.49236346687924    2.69544519388531
C         6.97665282201897   -2.73524253058912    2.23171698987635
H         7.12501996965757   -3.13874106864851    3.23089123294138
H         7.63990487183141   -1.88218394831232    2.08957492568589
H         7.25558117606585   -3.50787761028114    1.51631483016328
C         5.34420203636815   -1.83553744629588    0.57268400435578
H         4.29574143228964   -1.66195568495589    0.34360267673356
H         5.74271320971229   -2.55406633888618   -0.14092652247068
H         5.88661420900095   -0.90358617471043    0.44121918575531
C         2.84677306989764   -5.05326050930430    5.37966160516479
H         3.10393153987614   -4.17646368329152    5.98296853292445
C         3.41242697071454   -6.32010083043326    6.02902838447630
H         4.49995554096166   -6.30603371481075    6.03692407564818
H         3.09378480162621   -7.19956350856862    5.47349636822947
H         3.05731138369000   -6.41619558131036    7.05382315933162
C         1.31620376226624   -5.13335114512351    5.34899938715678
H         0.89705886070840   -4.27597843546482    4.82689444486502
H         0.92538230230634   -5.14208074020392    6.36501809209215
H         0.97569059585033   -6.03683775712213    4.84983040945936
C         2.02949884821431   -1.59374422824855    6.77411823465716
H         1.35070118405799   -0.90538970607476    7.31631269890224
H         2.05389277562806   -2.52982657571424    7.36642617649208
H         1.58678152845420   -1.80936111037619    5.79930150415211
C         3.86156757993062   -0.68421910228972    7.93076976009634
H         3.15718215157851   -0.02868030955130    8.48130491493269
H         4.82069916147663   -0.16413043197493    7.86017293036624
H         4.00632276562924   -1.58399280440435    8.56226075274256
C         6.72900050640750   -1.37062851835692    5.68835520680596
H         6.66120071919787   -1.40004839155719    4.60103662419813
C         7.04905719399409   -0.16528343405173    6.29972887667730
C         7.34280543131281   -0.16759799707037    7.65721187438533
H         7.62403871535742    0.74732812299441    8.15878360709008
C         7.24579410276504   -1.35461617341723    8.37305287236017
H         7.50377633567853   -1.36437358924421    9.42187208313006
C         6.71490045964187   -2.49555438024039    7.78853656353343
H         6.52008780081301   -3.36984604096548    8.39305659557799
C         6.41523039301373   -2.50172587912031    6.43034566267372
C         6.86383856616845    1.03877166481025    5.42103075705119
H         6.81886897210949    1.95380025750739    6.04004179869962
H         7.74535000518976    1.14672167250935    4.75889067944948
C         5.63780936003504   -3.57597214617866    5.71455596867905
H         6.33190792300088   -4.29836275048731    5.24005333161017
H         5.07731868968433   -4.14071823887393    6.47898692945461

