137
CSD_code = UKEHAT | q = 1 | S = 0 | Stoichiometry = C72H60AgAs4(1+) | MND = 4
Ag        6.40349551271859    3.72288362003691    4.67445032368343
As        4.41263927877934    3.11673865025306    2.98383281256084
C         4.83184804489040    3.20192158752982    1.08665773738333
C         5.79782678244283    4.11671197840606    0.68246198506478
C         6.16748600146762    4.21198323251231   -0.64613267018322
C         5.57103876130335    3.38460551479222   -1.58444146798387
C         4.61149701719593    2.46572875255353   -1.19059536464607
C         4.24389896702015    2.37118153368929    0.14093571640053
C         3.65854768123874    1.33003219552328    3.13472876131039
C         2.30354453544971    1.05872013001634    2.99368183434033
C         1.83378399967259   -0.23393427303968    3.15493028752924
C         2.71156476091508   -1.26049852693871    3.46339005361940
C         4.06412482673814   -0.99689380443092    3.61183386060852
C         4.53104581557708    0.29383572070624    3.44949679474934
C         2.81800869810078    4.22529887660136    3.09226484223960
C         2.44585960880553    4.68396594596778    4.35128857055874
C         1.34748478713401    5.50856893263622    4.50582215435901
C         0.61164985451529    5.88611269145288    3.39361058017778
C         0.97790422618026    5.43895578350451    2.13446449024973
C         2.07929402357587    4.61343098967228    1.98184121655792
As        5.44157373854719    3.82365462284706    7.17832045279528
C         4.42782483152784    2.28164927865146    7.79241170687053
C         3.66302332815300    1.60099492954063    6.85125106563567
C         2.94031073023390    0.47817459015953    7.20813741413425
C         2.98137078150732    0.02390000608208    8.51699863084596
C         3.74493800067736    0.69195786773314    9.46054206117578
C         4.46897964197746    1.81608658448841    9.10054556549065
C         6.75324983040739    4.01726014360046    8.60109991944426
C         6.56082154867303    4.82749220762778    9.71276193569163
C         7.55958007641734    4.94921035795340   10.66432152738694
C         8.75627532978281    4.26866230850956   10.50882830036648
C         8.95812004499085    3.46273987758754    9.39934573818950
C         7.95979376012116    3.34186536268218    8.45124297794215
C         4.21358954441012    5.28087868620671    7.56701339359960
C         4.41462695916361    6.48348888453315    6.89846310479798
C         3.56030119098254    7.55203900752467    7.09552741437333
C         2.48973842844099    7.42213450959129    7.96614835601360
C         2.27872507905872    6.22658598175443    8.63388646948422
C         3.13516101086660    5.15703647596786    8.43383281677282
As        7.42795369942444    6.12140924413849    4.03495267925677
C         8.69552600221814    6.90633443819319    5.28431168895054
C         9.77291276272925    7.68642151817117    4.88351886548505
C        10.65513119395030    8.18842335946299    5.82527013510338
C        10.47080805859516    7.91006061486766    7.17006421434371
C         9.40223006875736    7.12710775706784    7.57746544939046
C         8.52183109408774    6.62822099601014    6.63569806436322
C         6.15001235540415    7.56938436026668    3.80515131707643
C         4.91823873200182    7.24853893474350    3.24481814525019
C         3.94113373463629    8.21340664169284    3.08876479563566
C         4.19009418688746    9.51382003621222    3.49874074765214
C         5.41241995766787    9.84219270433995    4.06207546815076
C         6.38967020481733    8.87352150748649    4.21863148082350
C         8.42244333630133    6.20773050040241    2.36592734383640
C         9.18786281808787    5.09914467495472    2.02038709571710
C         9.89019299190685    5.06993385793391    0.83035456160498
C         9.82793972790461    6.15541538024504   -0.02929740526550
C         9.06453965473580    7.26244899064719    0.30407622475187
C         8.36079434163006    7.28917848105745    1.49639900881220
As        8.32819790153730    1.86316878109721    4.52089478554316
C         9.03241732214944    1.48209675511868    2.74820672625726
C        10.37379384758768    1.22358769178999    2.49672665120364
C        10.80659089169162    0.99978773589494    1.20039484606933
C         9.90553007453206    1.03877096610023    0.14875700941016
C         8.56657467742111    1.30261962776686    0.39079675611243
C         8.13656593992193    1.52475495499821    1.68537085278006
C         7.85944710231867    0.08131314536054    5.14402804931022
C         6.94478341014428   -0.01220584583746    6.18720557028912
C         6.53966978853727   -1.24540091503984    6.66222487762448
C         7.04803217666639   -2.40090903125089    6.09025299943452
C         7.95531429799946   -2.31815822583753    5.04631538192590
C         8.35870031475507   -1.08164655101539    4.57125690759920
C         9.95348152225719    2.21692551227003    5.52945395724274
C        10.33166738435607    3.54553732360994    5.68838861630084
C        11.45606828966697    3.87675035830078    6.42099705041275
C        12.21267561211093    2.87389448184004    7.00631981492092
C        11.84101877867528    1.54729615866785    6.85816510531051
C        10.71349101108539    1.21803979215474    6.12487033166076
H         6.27338484122336    4.75364037237591    1.42939580712026
H         6.92279790789676    4.92398374908494   -0.94519238595340
H         5.85775018644340    3.45173475675836   -2.62302788524649
H         4.15104705169985    1.81832758698826   -1.92245720097781
H         3.50170593357433    1.64271991353118    0.45163779291111
H         1.61383617055570    1.86480859752768    2.76479669971261
H         0.77923332818043   -0.43989701552648    3.04380657230828
H         2.34028375329173   -2.26579570905305    3.59345458654193
H         4.75197284389351   -1.79161885774715    3.86084772632844
H         5.59170510110055    0.51214227974656    3.57879632222038
H         3.03766556757786    4.39294683033730    5.21996147634971
H         1.07170995257941    5.86039407747273    5.48912864679168
H        -0.24486910653116    6.53323674155372    3.50743508205697
H         0.40618878363923    5.73715761345518    1.26775396055146
H         2.37271321623937    4.27412982668749    0.99373558434284
H         3.64775369070681    1.95656037166371    5.82030543134939
H         2.35366348166787   -0.04338331584143    6.46609899630893
H         2.42152580969538   -0.85429654550091    8.80105920816393
H         3.77961266899592    0.33435923371743   10.47919407445649
H         5.07657007703548    2.33236870455020    9.83688562232380
H         5.62843678341521    5.37060458109060    9.82853099021690
H         7.40465259270243    5.57973396769909   11.52767659526679
H         9.53384612724083    4.36975562338755   11.25079411404595
H         9.89211695718506    2.93609980426886    9.26899795690162
H         8.11530129640803    2.71986818649616    7.56894522793268
H         5.25139263087608    6.57309507417277    6.20446619673937
H         3.72571261726145    8.47890709823694    6.56604382774563
H         1.81706670375358    8.25196740205025    8.12188522527099
H         1.44167644231452    6.12526483046722    9.30906236490504
H         2.96204220609169    4.21657321321438    8.94694319635016
H         9.92412586865716    7.89430864753596    3.82912886338446
H        11.49061310042264    8.79556620516552    5.50895521795010
H        11.16328727514420    8.30040495785300    7.90047075080425
H         9.25812074321519    6.89927332872466    8.62347868192570
H         7.68648527561489    5.99963451592165    6.94671307623605
H         4.72594637478254    6.22011741498124    2.93622201614241
H         2.98718125212604    7.94960321119599    2.65625737805810
H         3.42940419968091   10.27099737489836    3.38307892354003
H         5.60413959582853   10.85524810182172    4.38425129987524
H         7.34207723456233    9.12878376416509    4.67165701258401
H         9.22100542039767    4.24358744579030    2.69624244994150
H        10.47698172430515    4.20062323291129    0.57205131212560
H        10.37137962985770    6.13692704720358   -0.96188503001348
H         9.01402938525091    8.10634247445864   -0.36828043410422
H         7.75271462183963    8.15110742917548    1.75153123354766
H        11.08243253785311    1.20564745565700    3.31844968807488
H        11.85065026666242    0.79817302034796    1.01011812387248
H        10.24800767046098    0.86832562073797   -0.86069562235630
H         7.86100375723438    1.34279197299655   -0.42606128196326
H         7.08718928948431    1.74636244232914    1.88284895759597
H         6.53794380990845    0.90183276036670    6.62161913116757
H         5.82539098254977   -1.30331113805965    7.47043351293347
H         6.73344396042659   -3.36705712638351    6.45493117079296
H         8.34697378645671   -3.21960146685941    4.59830582182998
H         9.05855003005914   -1.01700611193125    3.74420733180298
H         9.72263255955615    4.32973143717159    5.23684500764526
H        11.73533609486173    4.91340657116149    6.54018334351896
H        13.08972457300227    3.12622027628202    7.58294851777589
H        12.42911510621540    0.76694133795139    7.31862221268472
H        10.41551595171941    0.17975087521511    6.02017197973422

