60
CSD_code = UKEJOJ | q = 0 | S = 0 | Stoichiometry = C20H28CoN9O2 | MND = 6
Co       -0.10367367335489    7.62798001065875    5.90777894149584
O         0.81958181521704    9.28342851495662    6.55999126817946
O        -0.81134793509296   10.71414186089368    7.01908414541946
N        -1.83020214712310    8.56208495553880    5.73021639332402
H        -1.60591994506680    9.43875467841535    6.26733339071876
N         0.22334060819554    8.17916932594647    4.02671112423299
H        -0.07301832588072    7.40397188983042    3.43268867902554
N         1.79382231093106    6.92852383552687    5.85184466449378
H         2.22051109573027    7.64549436644612    6.44725600114263
N        -0.76978872207045    6.03826855579223    5.23561986636893
N        -1.35959071833043    5.15476200584686    5.73377643460364
N        -1.93191806544655    4.22760611798377    6.04379290266451
N        -0.39838717784690    7.15170601921348    7.66955304424797
N         0.34409160829439    7.34535079840959    8.55508088583823
N         0.98980079045964    7.45683587367401    9.48261636139590
C        -5.38808045718904    8.65436033327161    5.59294873088339
H        -5.48334170467854    7.68650627349396    5.12128010566958
C        -6.44247893419737    9.55016869308947    5.54568257640989
H        -7.35487585229886    9.27976847599060    5.03465258310288
C        -6.32556262935662   10.78974105819186    6.14989590314693
H        -7.14657659952048   11.49040742544544    6.11162233307304
C        -5.15283134424055   11.12686949838209    6.80547602598667
H        -5.05771510050669   12.09216638541803    7.28004820372493
C        -4.10089552300031   10.22999254620039    6.85971709551390
H        -3.19079933844800   10.50323167040925    7.37218998919318
C        -4.21064474319260    8.98423648865316    6.25061686280740
C        -3.06312521776456    8.00661085946266    6.30267024778724
H        -2.84825085386201    7.73772593415319    7.34049783611511
H        -3.32745055161268    7.09235111867514    5.76363205739068
C        -2.00953059077203    8.96037839022578    4.32768962751830
H        -2.70251562657891    9.80588380661199    4.25008843622596
H        -2.42896654036232    8.11248361470810    3.77404790751887
C        -0.64087420219226    9.32323722328591    3.75647337142621
H        -0.70404083453970    9.55838780096719    2.68607755546711
H        -0.24624025244040   10.19475181219839    4.28436800363606
C         1.66182569192879    8.35839015155354    3.87608307141621
H         1.95684884912296    9.24949912877546    4.43516081484632
H         1.96373985477348    8.47947362652649    2.82730421259640
C         2.31576145188075    7.12199201876192    4.49100938168985
H         2.04241149444530    6.24107140716215    3.90147339159212
H         3.40844137086098    7.21509131552016    4.49304343882728
C         2.18839534071474    5.62176735392951    6.40941358445950
H         1.93311296253435    4.84399714753402    5.68647862977904
H         1.60549574783833    5.44539959108711    7.31592320997950
C         3.65717897667574    5.60582460890493    6.74249001527515
C         4.10239673149837    6.29314087219864    7.86704794763297
H         3.38649690300376    6.78251004354248    8.51349374698000
C         5.45123058230974    6.33370768342210    8.17051358501115
H         5.78805220316828    6.86413125260592    9.04835604135162
C         6.36694572217262    5.69056702826285    7.35346125250987
H         7.41966678397260    5.72067933548381    7.59170525245981
C         5.92971149084152    5.00290756921753    6.23456506464673
H         6.63989161732793    4.49559924769897    5.59837143097933
C         4.57980329409729    4.96317620670006    5.92866781624251
H         4.24013002634709    4.42002625383361    5.05789390215472
C         0.35819478273278   10.33103247520536    7.10889936436139
C         1.36747035130632   11.13865960392428    7.91147924670492
H         2.32227436617483   11.18098842491054    7.39270698669775
H         1.51397533847645   10.63240918078730    8.86432334936789
H         0.98394344392890   12.13852025447313    8.09051570668976

