52
CSD_code = UKEPIJ | q = 0 | S = 0 | Stoichiometry = C25H22Br2NiP2 | MND = 4
Ni        9.72026132501012    6.67985713956459    4.12710234054304
Br        9.67286831800156    8.90928009740965    4.22926270684369
Br        8.23785631584726    6.40565020394044    5.77005456891837
P        11.37812224572877    6.59268004105578    2.68986535076737
P        10.04274114832062    4.53390642569226    3.79780657339386
C        11.01514293722143    4.82983150832468    2.23870886712987
H        11.86040368179747    4.17621110184077    2.01569615956160
H        10.30249182426789    4.81550301813368    1.40558232073773
C        12.84007741200798    6.38225875220981    3.75277291462758
C        14.07547167075507    6.03195566000302    3.21898964605893
H        14.19513480776398    5.95109009788213    2.14631294787542
C        15.14143877048677    5.79153805973913    4.06478623915266
H        16.10145452379338    5.51616834109571    3.65297915122176
C        14.98087046340375    5.90118550180823    5.43802820868106
H        15.81694880906332    5.70662336623045    6.09285133917494
C        13.75745098410666    6.26894450560127    5.97144404631531
H        13.63324848014481    6.36553016853109    7.03910402835805
C        12.68952841723805    6.51470674341579    5.12871264223588
H        11.72942963122647    6.82122905435271    5.54868212683368
C        12.03846572744948    7.44134281530185    1.23203722977034
C        12.28244468255574    8.80695710242990    1.35971092158673
H        12.05539937533952    9.30480917454243    2.29339075733558
C        12.79521804633005    9.51362962631887    0.28873081887349
H        12.98324708514533   10.57203530807999    0.38495149994143
C        13.05900296772702    8.86466963854789   -0.90754768705516
H        13.45765546587675    9.41742340529922   -1.74502996737475
C        12.80414238037544    7.50904177985933   -1.03724430519220
H        13.00480362129099    7.00652861588433   -1.97235626008357
C        12.28766703157798    6.79354918929587    0.02811598731651
H        12.08302762734119    5.73678801373550   -0.07954692247356
C        11.12706025016618    3.65346159602160    4.95849374253078
C        10.58087612099024    3.43604886378784    6.22323972667676
H         9.57535399015702    3.77745007443597    6.43559942788475
C        11.32738830526906    2.80750549506057    7.20050532532418
H        10.90148906468981    2.64532052870600    8.17887515889220
C        12.62245907237501    2.39702146677613    6.92551699544332
H        13.21045133839210    1.91193639624993    7.69016975513511
C        13.16639924800644    2.61299583451247    5.67082170616814
H        14.17634199762037    2.29649036533781    5.45450946033735
C        12.42478266448526    3.24072357149145    4.68607147616179
H        12.87392905794130    3.40922581771013    3.71791391792776
C         8.83527931706564    3.24686250749243    3.35874988809359
C         7.47596672152146    3.52772519146387    3.40494191319284
H         7.13473428367733    4.49919528513228    3.73795398903243
C         6.56291068808525    2.55396308632959    3.03799001552219
H         5.50588363849463    2.76906761522448    3.07632873847303
C         7.00717325230744    1.30935965235277    2.62590796761684
H         6.29505970296185    0.54988936412086    2.33942674710172
C         8.36548106916872    1.02956054436851    2.58287539961706
H         8.70789693929976    0.05550522108711    2.26526438790784
C         9.28299027612872    1.99439874915857    2.94955829876893
H        10.34387722400348    1.78136831705506    2.92833171111779

