59
CSD_code = UKEPAB | q = 0 | S = 0 | Stoichiometry = C28H24N2NiP2S2 | MND = 4
Ni        9.03003594567663   -0.64329698041664   21.19659301460213
P         7.46389083287859    0.23735833594568   22.33685816207181
N         8.86745946758218   -2.18415501422849   22.19147871794936
C         8.24735656593310   -3.01075615998071   22.76421642760750
S         7.50612127001616   -4.14097519168629   23.57579481785728
C         6.83200188808021    1.77414079231732   21.50630970990066
H         6.12838061183912    1.47937171737997   20.72177236587040
H         6.30590075010376    2.40752429009547   22.22587103936355
C         8.33910734842024    0.93974316630064   23.76154051644787
C         7.69624435151446    1.68993540982058   24.74182051048931
H         6.62434593905300    1.83072273074135   24.69831298511657
C         8.43347771838166    2.23736714048120   25.77561919741728
H         7.93772396488069    2.81553673496483   26.54146595571589
C         9.80576821920192    2.04374038181296   25.83293483140180
H        10.37419051595790    2.47335420866585   26.64422744164504
C        10.44842724252945    1.29673138635514   24.85865032183994
H        11.51572313210468    1.14201821189485   24.90787737524989
C         9.71628799397279    0.74373349101651   23.82360810399687
H        10.20904192219757    0.13498379965897   23.05555909044615
C         6.00253531695819   -0.59615157078409   22.99138195476465
C         4.92471314196449   -0.84407697530027   22.14444709274763
H         4.94503564282118   -0.48415140969047   21.12400713089748
C         3.83938958901648   -1.56467926361500   22.60412412610120
H         3.00339698895048   -1.75575566970326   21.94752036907058
C         3.83156749179824   -2.05655884444476   23.90000272291478
H         2.98632067553089   -2.62772274503163   24.25320952643061
C         4.91467357471337   -1.83672687579857   24.73426400711463
H         4.91999091441070   -2.24326733615280   25.73402776222299
C         6.00508502174772   -1.11715983466718   24.28188032676978
H         6.86374856563192   -0.96724356843220   24.92103899472996
C         8.04038138599040    2.47212237120260   20.89386447033556
P         9.05543987988921    1.15682163310393   20.06305448176208
N        10.45222539957478   -1.27188037286206   20.21040603359860
C        11.47552020304043   -1.14574465682027   19.63382843865317
S        12.82607241322007   -1.06995578733006   18.82439440440530
C         8.00973631998028    0.74975527110549   18.63845551684718
C         7.68140630541333    1.68133858348670   17.65799941261978
H         8.09534405226179    2.68006485955718   17.70128580154338
C         6.83871710622860    1.31625796021568   16.62432237569573
H         6.58581861287725    2.03446244713704   15.85829497921855
C         6.32038258864235    0.03094153655108   16.56735045302990
H         5.66410812047744   -0.24673367952269   15.75612973000292
C         6.64608783151995   -0.89887737298040   17.54187542226099
H         6.24645351743983   -1.90055294388575   17.49288014642884
C         7.49107525519857   -0.54098323559279   18.57684123790139
H         7.77203848726828   -1.27151768927953   19.34535435728978
C        10.50818575045989    2.00526103840938   19.40870674821412
C        11.26196696344345    2.81436182684180   20.25581781477218
H        10.94012741850801    2.97649802801707   21.27630816488887
C        12.42863540544237    3.39405160326749   19.79614182748492
H        13.01218252847351    4.02235039910039   20.45281965911979
C        12.85833134166861    3.15518258068823   18.50013626953748
H        13.77552411379877    3.60171987070147   18.14689731911765
C        12.12630838095253    2.32729212294370   17.66576296420630
H        12.47562709543868    2.11958968812582   16.66593044808271
C        10.95793246249015    1.74276359132783   18.11811214826504
H        10.39866819747070    1.07422198528584   17.47890152988209
H         8.64752546217726    2.93402475106631   21.67839121504051
H         7.75473479681288    3.24447923261665   20.17442203105735

