58
CSD_code = UKEPEF | q = 0 | S = 0 | Stoichiometry = C27H26Cl2NiP2 | MND = 4
Ni        1.43663169997834    3.80964638421366   11.27433679441836
Cl        2.02467657124362    2.26016703724334   12.56113773808175
P         0.98033540636804    2.24171118753416    9.88117380132082
C        -0.39922713105837    2.53939093918791    8.67733945739715
H        -0.48415620300325    1.66204278067582    8.02878451269852
H        -1.32071520322751    2.59282341284748    9.26792734153063
C        -0.23751540403436    3.80975174354729    7.84676833844852
H         0.74622539378506    3.80962670388674    7.36847883724494
H        -0.99321015610129    3.80982266670237    7.05421126665126
C         2.44190711784998    1.98830466473827    8.82374186963073
C         3.68309573343029    2.21106123334180    9.41498612815421
H         3.72586927349481    2.47822327031910   10.46508849388979
C         4.84487332095994    2.08394827139331    8.67714056786625
H         5.80193278847768    2.25517332464321    9.14632183731128
C         4.77797086678145    1.74209130595531    7.33687457311025
H         5.68231966708587    1.65165727664483    6.75356754946098
C         3.54764763198666    1.50902375401428    6.74458269108282
H         3.49390856526746    1.23231871470616    5.70142426796611
C         2.38250677599718    1.62663338754534    7.48125489527594
H         1.43414502275517    1.42862633403673    7.00396038908067
C         0.50189764126839    0.57869643004777   10.43707666358397
C        -0.54634421577028    0.48728454575247   11.34761477671828
H        -1.00802548074662    1.39444270837834   11.71735464943097
C        -0.96677698861488   -0.74787712088353   11.79950213327780
H        -1.77702100825699   -0.81662734420077   12.51034363684208
C        -0.33820253454677   -1.89814826511775   11.34809164536972
H        -0.66078153274452   -2.86459461073995   11.70634313703996
C         0.71164712975464   -1.80867730310752   10.45026294257747
H         1.20911414216321   -2.70497380610730   10.10911641972461
C         1.13631737778165   -0.57298650083864    9.99281543427665
H         1.96505694490085   -0.50340856611903    9.30248845886039
Cl        2.02464506489726    5.35897244625131   12.56133743031033
C        -0.39895089482858    5.08017889268333    8.67729548165200
P         0.98056324221418    5.37770856506097    9.88122398937854
C         2.44232006755490    5.63119192577892    8.82406433959544
C         3.68343664934747    5.40910244049509    9.41572684984333
H         3.72603242852183    5.14237917921286   10.46594356516100
C         4.84536150742217    5.53632832550915    8.67813445472989
H         5.80235795346570    5.36561032647819    9.14763564306971
C         4.77869298154772    5.87762739456605    7.33770990343776
H         5.68316164000706    5.96812627751277    6.75459860986370
C         3.54844362071024    6.11004047885824    6.74500654595405
H         3.49487725500102    6.38632706060597    5.70172628592016
C         2.38314977684221    5.99231890490222    7.48142084252549
H         1.43485355009159    6.18983615008075    7.00379441700472
C         0.50204825270772    7.04071154719066   10.43710171478469
C        -0.54614808212220    7.13208879224800   11.34769900751396
H        -1.00769235754937    6.22491125002681   11.71756388874057
C        -0.96672348119033    8.36724500233594   11.79946601962103
H        -1.77693158845801    8.43597064181001   12.51035424371554
C        -0.33834242975037    9.51754535392052   11.34786680916180
H        -0.66102633167024   10.48398871971341   11.70602998078025
C         0.71145307866690    9.42811092753534   10.44996642369037
H         1.20877503272772   10.32443277279832   10.10867748910155
C         1.13626656386625    8.19242575703510    9.99264150395653
H         1.96494426962507    8.12287823827907    9.30223405075498
H        -0.48370323921071    5.95752378288470    8.02871146695760
H        -1.32046774366326    5.02694428598923    9.26785779445385

