117
CSD_code = UKEQOQ | q = 1 | S = 0 | Stoichiometry = C44H64CoN6O2(1+) | MND = 6
Co        9.39218653853288   14.18030495236033   26.92561998383659
N         9.56160082329128   15.77294643313644   25.94658698114328
N         8.37092126599077   13.53404139237066   25.49472026793128
N         7.76453371362740   14.73112057485052   27.80825092122129
N         6.41952436413417   15.84507358735600   29.13756976442243
N        11.06938300836883   13.55452339201133   26.18523612248111
N        13.22938707171351   13.17857929763916   26.08610131631811
O        10.31267677782838   14.89179568883693   28.41995646403425
O         9.34103900599417   12.53903287592579   27.84807942903560
C        10.64607152583361   16.11210421089428   28.65966792773388
C        11.08995882355005   16.50099138490963   29.96705856409449
C        11.06230069613307   15.48184039453114   31.09912666757373
C        11.96377198837712   14.29489712856063   30.73718039866494
H        11.59615003590330   13.80399585649740   29.84285945128245
H        11.97253921705220   13.57399138169924   31.55067728244121
H        12.98370244494818   14.63555915129993   30.56655749541759
C         9.61654952614765   15.00147149269492   31.29066383677955
H         9.25279537032891   14.52539533570100   30.38546191103184
H         8.97082732031603   15.84392089745176   31.53575675027813
H         9.56778169627486   14.28056651958281   32.10284508249130
C        11.54948269861894   16.05847309623647   32.43210346126509
H        11.49405493409147   15.28395041051570   33.19365227380437
H        10.92784229173016   16.88926627722193   32.75866623697343
H        12.58449774357242   16.38621594751761   32.36773473783774
C        11.51502663152495   17.79018172681669   30.16430325945981
H        11.85240363250355   18.07314647412556   31.14597688187214
C        11.54024743356920   18.78248724264326   29.16434065133292
C        12.05145102278036   20.17017557352705   29.51438089034724
C        11.16837828036425   20.76893019260579   30.61811743721292
H        11.19385015029375   20.16570075093612   31.52126197595664
H        10.13600931863109   20.83710805630723   30.28045472710561
H        11.51380176438887   21.76862994976287   30.86961217306330
C        13.50025314179709   20.06123095104652   30.00953217443847
H        14.12878892020780   19.61606754131049   29.24095495439244
H        13.57197109766856   19.45109217381136   30.90538478157195
H        13.88942285356835   21.04944525094153   30.24197257362220
C        12.02732683253782   21.11997671225059   28.31391287876252
H        12.65308152822397   20.74665023527236   27.50648169815944
H        12.41277877027158   22.09138182569741   28.61401796175423
H        11.01397060408790   21.26266419122620   27.94531240821441
C        11.08353763646927   18.42965480531563   27.92471204528324
H        11.05281480568611   19.14257748919258   27.11611606718252
C        10.62056504031968   17.12345671481285   27.65109413904328
C        10.13216414964092   16.86028246777917   26.34621849023896
H        10.25009765743255   17.68211715796306   25.64268603519067
C         9.15564627969345   15.58972541442072   24.56164215756430
H         9.99096368207225   15.09639812346507   24.04037465662734
C         8.77231277099632   16.84413317737840   23.77555076328012
H         9.61152399012711   17.53818881360265   23.71857418858039
H         7.94032764074075   17.34793479218157   24.27282788143029
C         8.37783601890618   16.44965107630076   22.35339107354408
H         8.07936591007676   17.34065719222192   21.79999088738072
H         9.24400270243636   16.01783207898233   21.84740997809067
C         7.23744859745637   15.43970486631710   22.35776860285731
H         6.99769324801626   15.15091196217223   21.33395867346300
H         6.34647808367060   15.89891802467219   22.79146600304891
C         7.60350559829861   14.19428779281903   23.16292115897610
H         6.74478170859452   13.52230032505211   23.16496708292802
H         8.44565755181132   13.67721299334497   22.69755099873659
C         7.97850805838776   14.60140296630491   24.58888523262500
H         7.11698538117571   15.11840244704520   25.04053741036471
C         7.88781504307095   12.33982740087734   25.38578359729626
H         7.21630707874162   12.11930978801020   24.55840465789257
C         8.16524461683836   11.24149855001931   26.23480335137128
C         7.64599239342325    9.98082544176863   25.86322044757593
H         7.05051607383570    9.93908562305524   24.96503771887569
C         7.89570481181466    8.85876178384649   26.60203351582212
C         7.35476996571245    7.48115048968905   26.25768888838519
C         6.47555127766157    7.49756914830794   25.00446836640648
H         5.61641967736585    8.15098211164757   25.13787805245083
H         6.10549812268141    6.49394791097359   24.80887317559458
H         7.04029971883583    7.82084509774171   24.13294407025803
C         6.50731739758269    6.96854217774374   27.43042380474653
H         5.68537440165227    7.65314685839154   27.62932056547902
H         7.09762342120296    6.87174294447511   28.33714239253833
H         6.09218447042198    5.99238666845141   27.19143922073593
C         8.52936054833086    6.52527365539219   26.00712872405389
H         9.15253578027951    6.41895071868244   26.89051748992679
H         9.14981003957528    6.89482951517436   25.19313347885377
H         8.15651976859611    5.54049561519319   25.73601031080213
C         8.71577815196438    9.00803068664926   27.73839769120839
H         8.93744323745784    8.12014335218715   28.30425504429503
C         9.24492494633638   10.19978825105277   28.16232932246935
C        10.14792563997745   10.28803620966266   29.38578353797442
C        11.50274668870604   10.86790144765454   28.95403219775445
H        11.37254584593061   11.86849744496287   28.55431152275432
H        11.95470373882462   10.23709163782893   28.18974078824195
H        12.17570449208428   10.91906928600346   29.80671989524927
C         9.49575473691779   11.20092319543316   30.43133304629195
H         9.36374332665888   12.19887986268486   30.02801725118652
H        10.12377762753928   11.26106736726379   31.31687259719479
H         8.52421130385614   10.80552628887112   30.72144193919181
C        10.40467462285644    8.92565083275668   30.03733034530089
H         9.48183155786710    8.48051334607871   30.40157240935893
H        11.06619478552269    9.05990456269341   30.89038209297994
H        10.88859098710952    8.23910375939959   29.34615615238157
C         8.94320764557817   11.39136356546810   27.42343265990848
C         6.75461927783573   13.90172356572187   28.19776644406776
H         6.69332370508652   12.88198771646269   27.87641548125784
C         5.91459427572724   14.58506958287829   29.02443808902693
H         5.02288112967088   14.27641860621227   29.52897423057520
C         7.52924960414682   15.89338198449220   28.39077058919109
H         8.13906154133186   16.77080016631771   28.29838850391967
C         5.86855288377530   16.90621034985604   29.93326422220733
H         6.48769608970278   17.79546942148466   29.83277722833631
H         5.83857859539607   16.61061325335705   30.98320771285012
H         4.85289187392272   17.13701730667855   29.60772201526840
C        11.28288564756398   12.44678804717208   25.41930983158109
H        10.48233761255604   11.89043621866461   24.97679620558004
C        12.62209127858991   12.20495466198870   25.35282088332291
H        13.17191537739025   11.43333910047129   24.85539336446475
C        12.26383799490522   13.96949104739357   26.56798367572608
H        12.45469790463263   14.82400456969049   27.18597943670786
C        14.64141520683743   13.30524353500303   26.31612564725242
H        14.83597227883877   14.20633941114937   26.89361325869200
H        15.17571718020758   13.36462637336432   25.36702900019904
H        15.01081922228187   12.44164527610889   26.87136957517800

