61
CSD_code = UKEWEM | q = 0 | S = 0 | Stoichiometry = C29H23N5NiO3 | MND = 4
Ni        4.97961321839649   19.12403854954714   -0.84879800220903
O        10.10765727912281   18.63285935134440    0.07692734269673
H         9.20871253381184   18.87256600786077    0.40853831949087
O         6.40297331066872   18.57235299156617   -1.89720788317722
O         3.59047935160190   19.70829626692677    0.22554396197975
N         7.53408031397490   18.99257253758390    0.01570593459329
N         6.27745814485657   19.31378957950108    0.46293754824256
N         3.17420463732498   20.66528275550433    3.53458458023345
N         2.70680684924270   20.41098928837343    2.28005613738733
N         3.73378936111407   18.87155482024533   -2.30326485356880
C         9.99393249709141   18.24356050226349   -1.20117195561610
C        11.15111806996262   17.85651609648035   -1.87845836041194
H        12.08589964365159   17.89023216806357   -1.34100722902978
C        11.09660390483834   17.44388286268412   -3.19319924743859
H        12.00480272295921   17.14830714263381   -3.69762546135544
C         9.88388281134024   17.40580804727948   -3.86834715352153
H         9.84385941244929   17.08067662272702   -4.89691860526107
C         8.73185281323528   17.78585459261979   -3.21466781285731
H         7.77499040703242   17.76331750772973   -3.71460809826914
C         8.76515321489916   18.20765820067132   -1.88558264005764
C         7.51471088093255   18.60444039972846   -1.23239627674069
C         6.16826577520621   19.73218127622540    1.70614039113504
C         7.39489071033340   19.83021877753326    2.53226143753374
C         8.05059976112099   18.67975292871474    2.95290056402646
H         7.65067656332546   17.71147607833102    2.69085529578791
C         9.20536347937067   18.77941205763575    3.70739653024827
H         9.71043523312619   17.88306873247051    4.03455089504602
C         9.71616894664174   20.02377299844033    4.03534688087823
H        10.62056937640304   20.09955226363556    4.62038491105725
C         9.07048257595723   21.17117341226603    3.60689070524674
H         9.47147696148757   22.14296031998427    3.85480985337199
C         7.91191050767899   21.07792614692782    2.85686736605052
H         7.40994184292181   21.96981647725674    2.51061454512357
C         3.72773774952275   20.03969410986205    1.45061451707580
C         4.90996703593574   20.08271462801114    2.23339575640294
C         4.46667632671954   20.48151260910122    3.53051216875512
C         5.26776797075213   20.66791324266545    4.76709637236580
H         4.59278553645267   20.82308954997000    5.60407692463461
H         5.92312939337865   21.53236630675931    4.67360034612472
H         5.89011873059386   19.79449896329903    4.95348927863091
C         1.34265224717421   20.52654439559366    2.00989083746433
C         0.84654356002619   20.42565507933143    0.71344669064344
H         1.52231366414713   20.26589019449234   -0.11054968230625
C        -0.51347809106768   20.53869672471843    0.49027264523790
H        -0.89272933061626   20.45961974916245   -0.51857587261788
C        -1.38553282191769   20.75678210434935    1.54305701475124
H        -2.44613484397936   20.84416160107559    1.36024301336239
C        -0.88796282711373   20.86625935248487    2.83185190061196
H        -1.56176779882000   21.04059974448209    3.65769634837631
C         0.46710262284315   20.75189952285885    3.07018888655466
H         0.87351772010452   20.83589081011922    4.06481782312013
C         3.99325188666790   19.36279859294718   -3.51623593492651
H         4.94954101545604   19.85350025467374   -3.64737495739889
C         3.10371472696620   19.25203320821892   -4.57137519864623
H         3.35700525051783   19.66790139699664   -5.53374545419601
C         1.89524472777052   18.60502209716440   -4.36809542198048
H         1.17988030362735   18.50334445878670   -5.17022648352903
C         1.62939811309162   18.09062417703353   -3.10940999820448
H         0.70444514461747   17.57670764720650   -2.90075642950104
C         2.57297134197168   18.24444267832293   -2.10810191286098
H         2.38717753310740   17.85986903956423   -1.11336279854385

