69
CSD_code = UKEXUE | q = 0 | S = 0 | Stoichiometry = C29H34ClIrN2O2 | MND = 6
Ir        1.28841647641137    1.26222454576341    3.12231907938270
Cl        1.59609144200204   -0.94769018842855    3.72468158160398
O         6.48440616392464    2.35183869080945    2.71557803848869
O         5.78660769269756    2.05649008149791    5.66501163077283
N         4.22493274270032    1.88341593617954    2.57124817988240
N         3.72324601598112    1.67063714760045    4.69386689992019
C         3.18848422874919    1.63059683185058    3.43074907322164
C         5.42339316312276    2.09747444100804    3.22892981047814
C         5.07469293266001    1.94797486983036    4.69741295532585
C         4.13035539125291    1.94226459839620    1.14904332330808
C         4.02926356877555    0.76071475775064    0.41494975705249
C         3.93523134996262    0.85676757936061   -0.96497654328932
H         3.85118937628020   -0.04859335994648   -1.54839282463936
C         3.96461969182496    2.08258573955209   -1.61597644390149
C         4.10738791699913    3.23619641720298   -0.85982856822217
H         4.15568949584931    4.19558516593281   -1.35423822660400
C         4.19772536874849    3.18714387888913    0.52375899825256
C         4.05671413244845   -0.56891279863671    1.09579559443097
H         4.94474993671657   -0.65410185554755    1.72114166170006
H         4.06717085910509   -1.37279025915503    0.36552399783837
H         3.18501203693719   -0.69390465966869    1.73794902046388
C         3.84541751387940    2.14679021317609   -3.10799123814318
H         4.49429831959954    1.40916286317530   -3.57548707683741
H         4.11022494805545    3.13330012092889   -3.47900676274798
H         2.82129128909103    1.92877134797335   -3.41122996405405
C         4.37928898678508    4.44133420776679    1.32413214768623
H         4.17088811827036    5.31758616909030    0.71601505118699
H         5.40876783363318    4.50442680220495    1.67637089416926
H         3.72499618117034    4.45364143678333    2.19533568781798
C         2.98539682161919    1.35301075841739    5.87639432485365
C         3.14548555475523    0.08229621614471    6.43989528699695
C         2.37614779743162   -0.24466665687307    7.54265037108825
H         2.47410663970160   -1.22872263442242    7.97706043316560
C         1.48047261832240    0.65790676177384    8.10343159068340
C         1.40592732310967    1.93336497262046    7.57188569470230
H         0.75582680743461    2.66724049750659    8.02766431807757
C         2.16427987624698    2.30753155554519    6.46844907303899
C         4.13658174612728   -0.88863742516274    5.88122360650419
H         4.10903012503019   -1.81996170103195    6.43957732668667
H         5.14310090924175   -0.47620840135447    5.94078538773072
H         3.91191697440972   -1.10622897396522    4.83849584945610
C         0.64474113019772    0.25352557281622    9.27930857604459
H         1.28126715191515   -0.05733869120829   10.10608790282862
H         0.00821608190764   -0.59002139543376    9.01610280665356
H         0.01561143560316    1.07407960953716    9.61403827507030
C         2.12782910885790    3.73610405446131    6.01391224020564
H         2.77550904910227    3.90387150449594    5.15852900411391
H         2.46907319113731    4.37537461973192    6.82780490922095
H         1.11416053390649    4.03620734420744    5.75885796096565
C         0.91940773152953    2.77118207298133    1.63366805086411
H         1.83682103963394    3.09465443175506    1.15199209263506
C         0.63251428840007    3.31687534735667    2.89187350010166
H         1.36404497470533    4.01874438991505    3.28192706794045
C        -0.77157037393255    3.55835225501186    3.41058511946572
H        -1.42619470671412    3.79616730371948    2.57130024492520
H        -0.76382969110429    4.43508289663915    4.06173096132032
C        -1.32426724714478    2.36359272117913    4.20857287741044
H        -1.01274117357154    2.45802899365117    5.25103773733050
H        -2.41932620969799    2.37933691245779    4.19616863718880
C        -0.84478440386178    1.02514980938082    3.70705391934842
H        -0.81480427782506    0.25475376521242    4.47335473919825
C        -0.78195302358805    0.63909649801821    2.39857303789207
H        -0.66271485305414   -0.41911189782539    2.18682509233357
C        -1.24594094875276    1.47193011097533    1.23162593180499
H        -2.06090158326611    2.12285725305106    1.54965776540629
H        -1.64490526036689    0.80903850999180    0.46161573277674
C        -0.09731599356751    2.29507817643709    0.62495106506207
H         0.43350527745018    1.68255960217039   -0.10712202542228
H        -0.49847761496505    3.16207253877438    0.08916777978554

