54
CSD_code = UKEYEO | q = 0 | S = 0 | Stoichiometry = C17H30Cl2N2NiO2 | MND = 4
Ni        0.99996071371810   17.80543549792547    2.77095974169419
Cl        0.77225609728830   18.12673575054104    0.73911171926923
Cl        1.39216873788968   17.93781163705831    4.80031054630534
N         1.91130577598189   16.04211946152143    2.40815426314787
N        -0.85899871785564   16.64920050672039    3.30585940459863
O         2.14700010638215   13.87521278435250    2.02101900147028
C         1.44308576305871   14.86958749600037    2.57082661709720
C        -0.88661537958518   15.39047889248702    3.44838836107476
C         3.12428758288141   15.96694397591551    1.59349672056915
H         2.90553248582934   16.45092054603378    0.63357062268597
C        -2.14216789019946   17.19411544108445    3.73426505043023
H        -1.96315820352684   17.65755117947742    4.71521317081833
O        -2.06013556931825   14.85511942913212    3.82811208164936
C         0.78195698612846   14.32156685953863    4.84726226376631
H         1.10623723765334   15.30098805288604    5.19461886628480
H         1.61895768549143   13.62941082675509    4.89235445767747
H        -0.01351418546260   13.95791164227267    5.49246622426885
C         5.58186477968358   16.43936051081119    1.41855422635826
H         5.89971121464309   15.40342030577926    1.50359181886924
H         6.39144608230416   17.06960812837426    1.77807993464508
H         5.41570207471323   16.66310378762087    0.36723154559997
C         0.26514406504324   14.42485869477163    3.39397512343783
C        -0.22736679796702   13.05977714858376    2.90254307324838
H        -0.56358382927589   13.12735849996885    1.87068578639273
H        -1.05671107652195   12.72783091439467    3.52002511200386
H         0.57570149557972   12.33113825300878    2.95953098468525
C        -4.06147093408578   18.73580351510195    3.26621923185815
H        -4.78911336850500   17.93658507973417    3.14762560960492
H        -4.39373454320507   19.58795462079252    2.67846086630589
H        -4.04108511114879   19.02946018598429    4.31361123312567
C        -1.70568800609525   19.47994316449906    2.90814002805319
H        -1.89649378758278   20.21208869065053    2.12800937680785
H        -0.65925829852494   19.13317521673270    2.79759059519090
H        -1.79341172204183   19.96285274133997    3.87961494797659
C         4.31659584213510   16.71576117227816    2.23676229136837
C         3.30187344750754   14.44504541254301    1.41022615259603
H         3.32674459448095   14.14193311738117    0.36214701996830
H         4.18246912063393   14.04783157689921    1.92192633559385
C        -2.67188389296586   18.29615399993786    2.79660146029151
C         4.51279585482682   16.28285817412899    3.69026363923817
H         4.64160803232686   15.20561656149717    3.77380707920592
H         3.65453839110592   16.57836015683412    4.28969120051407
H         5.39787663580546   16.76127911687843    4.10167645981852
C         4.02204796266364   18.21768781674985    2.18278010527141
H         3.03828920904936   18.44067560133177    2.63963673621570
H         4.00709865840891   18.57162839037996    1.15400039750187
H         4.77330563515648   18.77340293060668    2.73789090444683
C        -3.00319077540872   15.92347403534807    3.89998743710854
H        -3.51513936913600   15.87290057800449    4.86134932173000
H        -3.73018506406338   15.79148410777630    3.09276304873795
C        -2.73304698507379   17.80598991934990    1.35054681512327
H        -3.38766536746553   16.94296581867597    1.24927190730596
H        -1.73934979297658   17.53327459258583    1.00358311336948
H        -3.11369360036498   18.59564748296306    0.70790996763607

