62
CSD_code = UKEYOY | q = 1 | S = 0 | Stoichiometry = C18H30F3N2NiO7S(1+) | MND = 5
Ni        1.97967613723560    1.15024576388266    2.28070277622058
S         3.73500566790078   -0.86131831167208    3.25259929782609
O         2.41026286017985   -0.24484761342032    3.55751601143077
O         1.26268025745209    2.34215872092631    1.65462472919731
O         3.52799393100273    1.01354289288009    1.68369053238889
N         0.14066385907118    0.69490658573880    2.93264045755275
O         2.76353826689717    0.91685015755325    6.07754269591074
N         2.20124377194788    2.33711875251990    4.47665513728803
C         1.83713578677230    1.31114883044449    5.26095383117146
O        -1.58622119238929    0.36111233084152    4.26691198607646
O         3.84226443491542   -1.55778095553390    2.02894103069532
C         3.64905683924171   -2.20951891886885    4.56579134031623
C        -0.95229604660438    0.38122420306196    1.99978397303174
H        -1.09195387076194    1.26453504491692    1.36746927858710
F         4.63192575746042   -3.08882351091095    4.49663358246112
C        -0.30730785060718    0.64430161404845    4.12894255229835
C         0.43317492019513    0.83966125184503    5.42662576007596
C         4.18051456246680    3.82918615179294    4.31671440066568
C         3.45329428004595    2.63811058207002    4.80008540737535
H         4.31161459970786    1.43957660142575    2.04126505767674
C         0.57037567245089   -0.46027519869945    0.18194486870386
H         0.42920071920924    0.51554926948968   -0.28260389415597
H         0.66782679085266   -1.20027932811176   -0.60907466636868
H         1.52213788883303   -0.47060944451897    0.73977022346124
O         4.81719867407940   -0.03077841065588    3.75200104412493
C         3.54841829957326    4.97840315159921    5.14620201532075
H         2.50331954638296    5.10342414259016    4.87901360921268
H         4.08433523657463    5.89512449817887    4.91601234032354
H         3.62887688467401    4.79539596289962    6.21500344191877
C        -0.27438114378466    1.96692337974158    6.21777592736697
H        -0.23780971987339    2.90230847583386    5.66474694437587
H         0.19888900843285    2.09980018127927    7.18726352651738
H        -1.31244316784214    1.68579816200783    6.37274004482266
C        -0.62206974941929   -0.82304921611061    1.07772989584143
C         3.92619734548849    4.10409961418156    2.82982061173852
H         2.89684468692790    3.87189316569884    2.55436712752641
H         4.59941672669529    3.51502811268883    2.21235759917170
H         4.11487773982669    5.15243376515511    2.61562047960898
F         3.68700325555831   -1.62876142519012    5.77706669750216
C         0.38412287755436   -0.48231447123603    6.20377930158250
H         0.86117871643325   -1.27318395613585    5.63169326324307
H        -0.65065254314124   -0.75701269067252    6.38869957847229
H         0.89938530551745   -0.38093813260438    7.15498414178845
C         5.67741856956399    3.73186013561230    4.61082563598889
H         5.88035626479414    3.73643001226176    5.67877263090832
H         6.18520636892210    4.58638768792087    4.17204421463544
H         6.09988985836919    2.82677665491870    4.18046486216357
C         3.93093731597661    1.63256104489790    5.75568633897964
H         4.56270076239290    0.93708190722320    5.09375186033401
H         4.50717575411544    1.88902034384827    6.64074758265580
C        -2.14350658018511    0.17279429344272    2.96177522550386
H        -2.94138055383122    0.90483628708401    2.82271346927368
H        -2.56478891383086   -0.83318424916266    2.92151750541582
C        -0.27361064677130   -2.06711154959854    1.89781379485940
H        -1.11209721741963   -2.41013801754477    2.49953614135168
H         0.57286904704695   -1.87003601437818    2.55404185499563
H         0.00382179919087   -2.87645944448293    1.22847722769648
C        -1.83880124619687   -1.08650176366133    0.18453720574017
H        -2.06794013668143   -0.21072591062919   -0.41626401198850
H        -2.72151258470060   -1.34727751343116    0.76116546467753
H        -1.62568499886325   -1.91270372831388   -0.48746445731536
F         2.48173111497161   -2.85137995696612    4.47435349378024

