67
CSD_code = UKEZUF | q = 0 | S = 0 | Stoichiometry = C22H41ClN2Zr | MND = 9
Zr        6.65096071948806    4.27159770898176   14.78462656679014
Cl        8.32499432780675    2.78395080554022   13.99408841619863
N         6.30762578453602    3.05349504405307   16.56119758882215
N         5.97865983310976    5.22895267135781   16.65544685289396
C         4.35440428295515    3.75310372887526   13.91999522159137
C         4.44896552452396    5.16639287522578   13.99986090179708
C         5.43974093974513    5.60661842511031   13.07889568636634
C         5.95220047069322    4.45362350283358   12.41733094073720
C         5.28205545089987    3.31033067232105   12.93994977079030
C         3.33171426693346    2.93366311597586   14.66254621798516
H         2.33474971195606    3.35229883203642   14.51175890730046
H         3.53305876914276    2.92509441875053   15.73794056618161
H         3.31604661998271    1.90712912887357   14.30156366198978
C         3.49641552572444    6.05592788757830   14.74506190478817
H         3.96388147767127    7.00280164940865   15.00822272157312
H         3.14678300932108    5.57012101882451   15.65423994692506
H         2.62186556840475    6.27559724271923   14.12507163527361
C         5.66929244978867    7.05457747162638   12.72721061691946
H         4.71703867019041    7.52943312764427   12.48210380185588
H         6.31629892026100    7.14979827921386   11.85739363356251
H         6.11771725401955    7.61161352655300   13.55375446627104
C         6.90003807572062    4.39502853618124   11.24999250085479
H         6.40640363793232    3.93102660134622   10.39384815039915
H         7.78182140500421    3.79667145755022   11.48790199004017
H         7.22732321047835    5.38767301203866   10.94937257119949
C         5.43657224416298    1.92459214532178   12.37367314282997
H         4.89603514076667    1.18753905908949   12.96390320924954
H         6.48741034470754    1.63337153238298   12.33007669757766
H         5.04287149153459    1.89298454081508   11.35437616146345
C         6.24071123066861    4.12164007749453   17.34343988733077
C         6.44536394505365    4.11843229867403   18.84367565943817
H         5.51032587877755    3.88646599347132   19.35055794287701
H         6.78877072255727    5.09317866627644   19.18160877432827
H         7.18844257789815    3.38181064616697   19.13187126186714
C         6.56134100515154    1.67595085821751   16.97880972501864
C         6.16079046046881    0.80557598245650   15.77354039946906
H         5.08623990725861    0.86936793131951   15.61368437364381
H         6.42556541211442   -0.23392400733622   15.95505695727560
H         6.68349886420819    1.14698825082681   14.88049342029698
C         5.70563165532592    1.21999735983097   18.17682364067028
H         6.13529843394250    1.50467045627343   19.13169263483528
H         5.62128551440268    0.13571116876401   18.16444419614872
H         4.70467073894487    1.64105872456788   18.10115979292118
C         8.05957160935481    1.45713288065192   17.25595069986752
H         8.63431381086181    1.72338652518653   16.36917596139592
H         8.24452490989001    0.41231433371639   17.49401246158879
H         8.41178550220577    2.06433390436243   18.08738120427427
C         5.91797827301731    6.53135580538457   17.29063595073017
H         5.91383256895641    7.27051946571983   16.48103734575991
H         6.81403685596979    6.72438907551223   17.90431251058008
C         4.66893256934848    6.76390946475156   18.15037876526204
H         3.77174911559058    6.59592251566341   17.56203337916779
H         4.66141792058890    7.79057876686156   18.50987898830002
H         4.64466896392895    6.09909743476321   19.00855192900249
C         8.25827947377822    5.79990967839515   14.90347099247143
H         7.87959197737498    6.79020978462705   15.23332201152868
C         9.02994069105311    6.02366919321014   13.59283409892185
H         9.86329288888291    6.72410001939254   13.72562080196724
H         8.38033955748314    6.44316249517417   12.82395950185930
H         9.45123645428411    5.08561050474785   13.22363316525837
C         9.22690584113255    5.29104376606477   15.99444563178657
H         9.86052553213035    4.50009859758233   15.57327828169053
H         8.66507321098796    4.85428119253896   16.83704265285126
C        10.13504598764743    6.38854232167340   16.56699998359763
H        10.75717920824700    6.82136992350912   15.78775252234655
H        10.79136279807572    5.98550482438498   17.33660612350819
H         9.53663280496744    7.18422510091525   17.00942191995530

