79
CSD_code = UKIBEV | q = 0 | S = 0 | Stoichiometry = C26H48ClN3Zr | MND = 10
Zr        4.89586597128630    3.78299821744263    3.74758784116361
Cl        3.41345085543333    4.02957597383821    1.84807372880359
N         6.28294114457521    5.00509260167205    2.61303502744758
N         6.40434454017852    5.06077009788061    4.81355367380582
N         3.46345106814381    5.11151204855458    4.57173821774245
C         6.77818214018945    2.11772515357574    3.14825101948872
C         6.44322786701221    1.88595795448514    4.50844120169479
C         5.09426309856533    1.43632851039377    4.56615381036111
C         4.60039648673879    1.38245087791776    3.23052183519346
C         5.64489266796303    1.80187514173278    2.35856564615540
C         8.16852321336444    2.43087568244613    2.66631685175624
H         8.81094131160466    1.55202827579069    2.76969550752120
H         8.61449423665841    3.23910551167408    3.24887767763412
H         8.17074940820839    2.72557296975314    1.61915640338364
C         7.44613455346214    1.73403981691067    5.61708882928880
H         7.02340154272073    1.97020448372910    6.59297053479403
H         8.31730330084238    2.36174487156442    5.44367666423133
H         7.79225374990869    0.69643609467801    5.65673035856901
C         4.46557766810542    0.82435004436718    5.79005830678621
H         4.89161991530539   -0.16712366138953    5.97029095530036
H         3.39112491134231    0.70578376141233    5.66772047660681
H         4.64903247695884    1.42873768993084    6.67977562783437
C         3.29873512796165    0.79178494674227    2.75841946125733
H         2.70561738464303    0.42252161413220    3.59261888823047
H         3.49630096434568   -0.05062733802110    2.09130309931857
H         2.70696403009892    1.52172246045717    2.20167974267382
C         5.57209790240195    1.70360364774947    0.85905443247689
H         6.51779951471151    1.98276919269978    0.39795835448612
H         4.77998976000087    2.33689546470860    0.45499969171873
H         5.35172165301026    0.67370265975025    0.56767384858801
C         6.88631747454245    5.52917682699442    3.66996618505873
C         8.02315626526225    6.51949447197801    3.50353726738233
H         8.85461944962843    6.03180575449864    2.99336816017489
H         8.38361085638892    6.90125250251506    4.44922943111847
H         7.69529260745749    7.35752011090851    2.89093556620604
C         6.68034013452523    5.29987624833514    1.25109444897062
H         6.50083368329775    4.39502371225163    0.65797133386795
H         7.74993701965811    5.54636771260198    1.18162795817724
C         5.85535436707860    6.43089321074443    0.62720670188486
H         4.81049447523843    6.13082541446051    0.58573979729260
H         6.20233232222342    6.62635527670297   -0.38504136266680
H         5.93997779093791    7.34624882963826    1.20972957942945
C         6.73226744776913    5.52998513805789    6.15451157281379
C         5.72387840763016    4.82255593287805    7.07990605018864
H         4.73120360265841    5.24575986359977    6.93757992367095
H         6.01405934717556    4.93803047089514    8.12268080901459
H         5.67993772305877    3.76200318665117    6.82955119027495
C         8.15448505850935    5.14049332332435    6.60646591934894
H         8.21837239326255    4.07026591272156    6.77137062162428
H         8.39219944825965    5.64646868588490    7.54004261960664
H         8.90132969735387    5.41468824809216    5.86696295530913
C         6.54521153975742    7.05159647651047    6.34202916553031
H         7.42138125194804    7.62025351856875    6.04408577567190
H         6.35522688310348    7.26727755090469    7.39157876122664
H         5.69691603463554    7.39778529035391    5.75743074666362
C         3.12556577408563    4.00832975350067    5.14278265180151
C         1.77806400573832    3.80716008156144    5.83257284888229
H         1.19930608299321    4.73405624975308    5.90366444949454
C         1.97447912718432    3.27480235505875    7.25352760497218
H         1.00834634685043    3.09798365398256    7.72417957450644
H         2.52440982519363    3.99407145944174    7.85852327893262
H         2.52932073961509    2.34086386034943    7.24187362556260
C         0.98746102204106    2.81152072986337    4.97779849069840
H         1.45996895782658    1.83260552466757    5.00833991991411
H         0.95559030816664    3.14434998802506    3.94095469870224
H        -0.03193346634190    2.71611204843509    5.34859225401439
C         2.74982998682469    6.39421415918782    4.38519304418792
C         3.66910393407093    7.20614237451816    3.45899282846322
H         4.67815502786942    7.24811801945456    3.86955809748887
H         3.29409435149487    8.21947412422843    3.32667164948907
H         3.71151694407090    6.71095141476950    2.49026095894970
C         2.57436490099982    7.14535739077105    5.71335963783521
H         3.53822222699318    7.29571329689623    6.19445486508712
H         1.93280326902753    6.60467752371951    6.40372199806512
H         2.12670828117137    8.11905736453401    5.52296175388926
C         1.40101198894835    6.22962603426623    3.66563556908321
H         1.08380433535228    7.19438966800669    3.27396776075895
H         0.61868952065504    5.86067482728842    4.32190956818535
H         1.51798276222639    5.53882966103196    2.83255397886286

