61
CSD_code = UKIHIF | q = 0 | S = 0 | Stoichiometry = C24H31IrO3P2 | MND = 6
Ir        0.89435545653227    1.42185446541815    4.53443873353302
P        -0.91140917861480    0.01410848748780    4.21094259077187
P         1.94522785991305    0.89470226357283    6.69643773853043
O        -0.07385341246406    3.95106511511448    5.88290980673735
O         3.61007133093839    2.61338513841530    3.89219490711986
O         2.61347894358573    2.54962691049287    4.89354880126566
C         0.87241122758624    2.16986484840973    2.58697879651169
C         2.07277647208919    2.33180958669558    2.02037864565905
C         3.32938375844061    1.84719061006950    2.73718757752340
C         3.17059819988030    0.37572247213378    3.04799107159895
C         2.13134814932273   -0.02082082237666    3.76459592802544
C         0.06709840253511    2.96242521857106    5.32484293178065
C        -0.35972226775580    2.50260755816668    1.86595812626199
C        -1.32743153180116    3.36270033609906    2.38495555789163
C        -2.47466026583264    3.65699933888757    1.67176418299465
C        -2.69020726180434    3.08764145336666    0.42766331865202
C        -1.74021820660057    2.22933382514504   -0.10179907527216
C        -0.58888541725211    1.94176295677913    0.60523139120616
C         2.27757963569320    2.97482205141468    0.71158419344928
C         1.70861963265206    4.21410355688926    0.43013215895881
C         1.90157916946199    4.81219650393419   -0.80055018537983
C         2.66179816640039    4.18206960542342   -1.77167162596800
C         3.23322107652391    2.95017337251472   -1.50113620745186
C         3.04723757864802    2.35249898386251   -0.26853774234130
C        -2.60041104031017    0.71747735040284    4.32664805221671
C        -1.02261586726721   -0.87913820192437    2.61870195373816
C        -1.04275572406659   -1.38596985077099    5.39015611606379
C         1.30176629566237   -0.28282313861941    7.98047836809203
C         2.18432818512163    2.36168775653524    7.76479563721754
C         3.65555570689959    0.26252500739991    6.56722234169429
H         4.21709485936851    2.03991266064816    2.12647914123102
H         3.94244149164960   -0.28392618803050    2.66760865124860
H         2.05626655210232   -1.08695343884087    3.99584931006115
H        -1.16256783301947    3.81983104712256    3.34964795342976
H        -3.20527467854681    4.33681183090804    2.08749277775891
H        -3.58822341657084    3.31590038313244   -0.12724493886557
H        -1.89651455157200    1.78578878790066   -1.07485711696285
H         0.15600887840226    1.28290186590294    0.18290428327004
H         1.12303612490225    4.70947882167714    1.18978506567801
H         1.45786450575882    5.77635061329591   -1.00370764751204
H         2.81050749333087    4.64936266500355   -2.73431750340023
H         3.82672710373821    2.45240450454307   -2.25511545754297
H         3.48467750872101    1.38452315850087   -0.06735253937813
H        -2.73490418869991    1.17665520956645    5.30418880841404
H        -2.71449052233587    1.48245356694253    3.56079110415485
H        -3.34839048279193   -0.06106422427267    4.18191265543256
H        -1.85737666671352   -1.57939721837912    2.63347995778823
H        -1.16162030240935   -0.15476598861017    1.81853708168202
H        -0.09163621284117   -1.41411852964159    2.44524995625396
H        -1.16359245675737   -0.99695953033720    6.39880545295388
H        -1.89261894355050   -2.01945846474284    5.13836375628411
H        -0.12702898592951   -1.97174026738606    5.34609063336984
H         0.30238945222033    0.01901499669634    8.28836483001589
H         1.25144038608325   -1.28794867662056    7.56735320608468
H         1.95166967060585   -0.29242944854373    8.85420127126312
H         2.83629784720219    2.10815446674587    8.60073369049006
H         2.63306853191029    3.14968751573936    7.16631798404819
H         1.22264988530795    2.70122179846436    8.14654087164041
H         3.64949711842875   -0.72826532873147    6.11708406834559
H         4.22474423614858    0.93651973125875    5.93285835566054
H         4.10449252169739    0.21255092049918    7.55951024603597

