45
CSD_code = UKIPOV | q = 1 | S = 0 | Stoichiometry = C22H18N3NiS(1+) | MND = 7
Ni        5.58862406284630    6.92808251261605   18.59806324344571
S         7.70521122918153    6.54708619852640   14.79798400656591
N         6.30260360545989    7.37120073571957   16.82337610367120
N         6.99125753468075    5.19324138892296   17.07856972881789
N         6.47282921541259    3.93635275737100   18.74377175112538
C         6.33296533792182    8.43324682504988   15.94599789449727
C         5.71965531001973    9.67541392102496   16.09729817506430
H         5.13789658064050    9.88267061647412   16.97944255191883
C         5.86126793528840   10.61726505986564   15.10117763250460
H         5.38833441157645   11.58040186526986   15.21137242361504
C         6.60156389748295   10.34776617118304   13.95129556771560
H         6.69765128427778   11.10385945756630   13.18868305406001
C         7.20964834715932    9.12088417594378   13.77263730440580
H         7.77802347159539    8.89933034604111   12.88404137061103
C         7.06662677053382    8.17283605686617   14.77170743983443
C         6.96287267864943    6.34601526222298   16.33677925322948
C         6.30852382521305    5.18019736346522   18.27191264709968
C         7.57129167608340    3.97548670645299   16.83370260183139
H         8.14837063220856    3.77311953092893   15.95542380795678
C         7.24504181985758    3.19408975973060   17.88875214826739
H         7.50009605916164    2.17446666725296   18.09314854056985
C         5.98895854631197    3.44160017027389   20.00898693969049
H         5.78262743802039    2.37360999245655   19.91068457695004
H         5.05021945065060    3.95754815787771   20.23443736366916
C         6.99149878966646    3.67059542185553   21.12245567797790
C         7.71501017142337    4.85336680911943   21.19660116236263
H         7.58069633974945    5.62153609246848   20.44074546062351
C         8.60882568482786    5.05980314267163   22.23249934720702
H         9.16945801529325    5.98077027768728   22.28171303786985
C         8.78379656212480    4.08781443139980   23.20321070695343
H         9.48015172736213    4.25006831223553   24.01087937127874
C         8.06396383056266    2.90744603111454   23.13343382083267
H         8.19658059596451    2.14619246958255   23.88621242104701
C         7.17404092909314    2.69666835830416   22.09444231497755
H         6.61454523834809    1.77423561659037   22.04393166467206
C         5.18406575099476    8.80987598796387   19.48227596223008
H         5.55081757472568    9.80475385999686   19.27861001603825
C         3.93261931050338    8.26431845095946   18.97070561705763
H         3.25208694881337    8.78666420775082   18.31714889484807
C         3.69868117055241    7.05834903780408   19.60293673530179
H         2.81230653813414    6.45031921195779   19.54039796032264
C         4.83824719402304    6.79985047367141   20.46089667320236
H         4.88313899906125    6.01766222824260   21.20533645672795
C         5.67503482222843    7.95739562156896   20.46763846565532
H         6.49587268631588    8.14294225795353   21.13878210569476

