53
CSD_code = UKIPAG | q = 0 | S = 0 | Stoichiometry = C26H21N5Pt | MND = 4
Pt        0.45769022647103   18.92533093538348    7.05811976692692
C        -0.12438548030434   16.53840680858279    8.47288387071262
C        -1.62518246046479   16.75752125999580    6.60522330771588
C        -3.11617164712460   16.67249956534465    4.72736624849551
C        -0.49883575128380   17.22152111858959    7.30712172103045
C        -1.95264638188227   15.03953339621869    8.28926459265937
H        -2.53553638834538   14.21176863749082    8.66463925646230
C        -2.87979856781520   15.49833661835950    4.02157171560472
H        -1.88061766123827   15.08952502290178    3.99909458955606
C        -2.34384638464029   15.67111885853956    7.12629779486509
H        -3.23204614132883   15.31828162613135    6.62542722194462
C        -3.91986454392685   14.86711026081661    3.36326493556700
H        -3.73309085837964   13.95565112525217    2.81473483535906
C         1.82539940636401   16.40414221886779   10.02264090586336
H         1.51531099198920   15.52938867744086   10.55573129479272
C        -0.82516814615470   15.45207470676997    8.97583059387948
H        -0.52290733222983   14.95107007673372    9.88183418122520
C         2.99373237021176   17.12574614463484   10.11453097356744
H         3.82684987519541   16.93757690887128   10.76007819780732
C        -0.21449137981054   20.48428903078640    4.78918663084468
N         0.63119817288107   21.33902463827996    5.52522048108685
N         1.06592086891393   16.98772860554661    9.07998076503863
N         1.04351185657112   20.95299374806551    6.74073499533537
C        -1.54145010967176   18.47762649140440    4.81270472203780
N         1.68847934743588   18.06027559244809    8.57173823517121
C        -0.61833942397703   19.31929928282267    5.45690345079652
C        -1.53713529774317   19.96164322620414    2.89149057994534
H        -1.88605247635230   20.18466214077840    1.89430744261109
C        -1.97696578777943   18.81599738701371    3.52274676021841
H        -2.65968119721847   18.16880173652274    2.99413255490165
C         1.62772859241057   23.07671410849120    6.41608551746456
H         2.03343386444281   24.05389034404642    6.57960878914529
N        -2.04964317925747   17.32626183217110    5.40778699134274
C        -0.65909545667201   20.82568702827043    3.52038904738374
H        -0.32317455903449   21.72160028165186    3.02268452552553
C         1.63129415395900   21.99850285410488    7.31171036415050
C        -4.39810157966955   17.20880891991814    4.76695153058089
H        -4.56933010306331   18.12275338271413    5.31592491183770
C         2.11312133824078   21.98535050827863    8.71716513251581
H         1.83328888926251   21.04811937694525    9.19175449944011
H         1.65555330213326   22.80764899860907    9.26588710973236
H         3.19385161620238   22.11286931626026    8.76328092414254
C         0.97692438362585   22.61693831897811    5.29390665074053
H         0.74330860841486   23.12324175238539    4.38033231974487
C         2.87205751351058   18.15229192376523    9.16798308845111
C         3.89492545703916   19.15847944547800    8.78206821268019
H         3.56104580927224   19.70160878378268    7.90149176384704
H         4.83224895002938   18.65423144355650    8.55059696406406
H         4.08345749981692   19.85818563065277    9.59533885967081
C        -5.43335645165501   16.57396734774800    4.10467670587810
H        -6.42857182851491   16.99221152186246    4.13865804212060
C        -5.19657326635355   15.40317340013082    3.40325364518979
H        -6.00657325250164   14.90871763340146    2.88796178232947

