39
CSD_code = UKIPIP | q = 1 | S = 0 | Stoichiometry = C18H16N3NiS(1+) | MND = 7
Ni        5.30574187570336   11.36087838410769    8.92684655319476
S         5.41966784735068    8.11170600375708    6.01999839105269
N         5.56291026204346   10.40037152622051    7.23976761647458
N         4.81744215946260    8.72851044529328    8.62977507107724
N         4.27002640536289    9.00051048997768   10.69106294589052
C         5.97519937925152   10.65005309275281    5.94918453942059
C         6.38099162106639   11.86999529063398    5.41153505564338
H         6.39236609657736   12.75077199008182    6.03112620391820
C         6.76118884093028   11.92353039273372    4.08796738648998
H         7.07687788164261   12.86393643825946    3.66463101319599
C         6.74571584235620   10.78423129656754    3.28479293662867
H         7.04835070416361   10.85492609596533    2.25238350185848
C         6.34698326422128    9.56409853037070    3.79389548774031
H         6.33063800295132    8.67771388182484    3.18094178310488
C         5.96473966269698    9.50844165517221    5.12372541084065
C         5.25225246367188    9.13385831533811    7.39331077564585
C         4.72398079250924    9.67430560737655    9.62265711801047
C         4.43248869662777    7.49565294898820    9.08781582672561
H         4.43094496429328    6.62086127478276    8.47132153553435
C         4.09388765725665    7.67611700580461   10.38520589803287
H         3.74154503408811    6.96651947490227   11.10582009731097
C         4.04292955001336    9.55137386418361   12.00766151243659
H         3.45901320660763    8.82224888329494   12.57792175968687
H         3.45288358438428   10.46719144509579   11.91706299219542
C         5.34230707109073    9.82318800147992   12.72128058018970
H         6.15728393915484    9.16389785926858   12.45719461045465
C         5.49650345822518   10.76412091612442   13.63218660859578
H         4.69061401313848   11.41790746882101   13.92359536121746
H         6.43202112394931   10.90578379787837   14.14284240920975
C         5.14401018852351   13.43375139909159    8.41851554613917
H         4.85192512994798   13.94861564027346    7.51623331503831
C         6.51934330537865   13.11062429861337    8.78577107789403
H         7.38751366681676   13.35516695558896    8.19305801793419
C         6.53027527838946   12.65817140737714   10.09701317675623
H         7.38980580517579   12.45828420137150   10.71313186559814
C         5.15759884385226   12.56723790911818   10.51635717847641
H         4.85153428175551   12.37641814701695   11.53391138917229
C         4.32579381897165   13.16966388239622    9.50568301330869
H         3.28260428039667   13.41426378209371    9.61041443790493

