64
CSD_code = UKOBIH | q = 0 | S = 0 | Stoichiometry = C30H18CoF9O6 | MND = 6
Co        5.25823777295242   28.20510648685969    3.76500295335352
O         4.60455790224115   26.85404207811325    2.67324961220752
O         6.87300658089011   28.38010749955236    2.84572072425924
O         4.56373464035916   29.45904702903380    2.58624339924728
O         5.85360101227836   29.46950025109238    5.00366947044998
O         3.64317148917299   28.20769931193364    4.67788146840430
O         6.02327167720311   26.85754500072227    4.80691396392759
F         9.31395930866989   26.95646019951837    1.04025042368301
F         8.35163950063586   28.53735179278216   -0.04682432532775
F         9.22449240999065   28.93737369481268    1.87673968939665
F         7.07614455394583   32.52690261905851    5.60585024629619
F         5.20388405031677   32.22974644444221    6.61249056161797
F         6.83547527135121   30.87448116057187    6.96381770828519
F         6.22134340435283   25.28146181906081    7.77757839424919
F         5.64379795838320   23.95970953339605    6.18772277706608
F         7.47436106419264   25.07804965871381    6.03973904644589
C         5.19641273482350   26.29529276423919    1.70654091637275
C         6.47092296440902   26.67092711632435    1.23284698747378
H         6.88821490719122   26.18741793076531    0.36702077646032
C         7.18389710092059   27.68364945192360    1.84182708837517
C         4.60920607198415   30.71757394835431    2.69081364975448
C         5.15364396930102   31.40291327545773    3.79700487631221
H         5.10681496032882   32.47687789284554    3.84182901374375
C         5.71662535205802   30.71338359371937    4.85170862637834
C         3.32623134413823   27.50503733219209    5.67920654479549
C         4.16008117565062   26.52439567066031    6.25643056925104
H         3.80132081295001   25.92660419499098    7.07583164384564
C         5.42680526186927   26.28970284268945    5.76156845350701
C         4.46523386304650   25.20016570066079    1.03282813270997
C         5.12203317902309   24.15737382600041    0.38121142941370
H         6.19955731097096   24.11487065873181    0.36993101540139
C         4.39151720244990   23.14907167205348   -0.22023026749401
H         4.90575099269693   22.34047658137500   -0.71746676758206
C         3.00633393639225   23.16944344373785   -0.18386312134246
H         2.44227486073825   22.38128489107028   -0.65961366605785
C         2.34703706589232   24.19750407369027    0.47134494072234
H         1.26801584675497   24.21161474038034    0.50750628941328
C         3.07066367081339   25.20273734429744    1.08243413906965
H         2.57410997752973   26.00921497633465    1.60000159031866
C         8.53249717476949   28.03636728239079    1.19036535738981
C         4.01774978708790   31.49174223275247    1.57784077083474
C         4.45463020950650   32.77394452764176    1.24859899921124
H         5.26421144852945   33.23062891051629    1.79547247037849
C         3.87623964501613   33.45058773932650    0.19044796264430
H         4.22309865256080   34.44071366894772   -0.06422112981485
C         2.85891876532442   32.86354407554671   -0.54503086094093
H         2.40819116020198   33.39981839873312   -1.36658192631668
C         2.42776251924590   31.58445932665173   -0.23051544275986
H         1.64093552384137   31.12178698951617   -0.80726684962635
C         3.00783720721257   30.89905737779442    0.81891956117507
H         2.68729727367528   29.90109799315293    1.07614542676675
C         6.22279827248812   31.57825513556691    6.01953780294395
C         1.97547577743391   27.72922282874159    6.23877657636162
C         1.67546956522207   27.49267495462866    7.57947917567320
H         2.44275350317090   27.15576242626676    8.25828082807055
C         0.39814686042939   27.72814257788729    8.05386549887063
H         0.17322490402078   27.54894048381608    9.09444652292490
C        -0.59079837868448   28.19553745428312    7.20294560057646
H        -1.58734971600663   28.37198095367451    7.57904539337266
C        -0.29643913067843   28.44436615335892    5.87168183301246
H        -1.06307706862276   28.81629896350469    5.20856397019762
C         0.97966975375427   28.22011291631286    5.39333374765385
H         1.22773261859682   28.41098430426898    4.36043968321891
C         6.21154051303291   25.15445382255431    6.44217005377889

