112
CSD_code = UKOKOV | q = 1 | S = 0 | Stoichiometry = C57H51CuP3(1+) | MND = 3
Cu       25.26994613100932    8.54131170025928   14.11895303250190
P        24.32952308115358    6.51056945353601   14.53008183100041
P        25.48806830123590    9.56367936977334   12.10760542351010
P        26.38538958951471    9.47714652122364   15.86799320573770
C        23.98872428731176    5.52166398598645   13.04118631845621
C        23.75235530281320    6.20725119317091   11.85551925373788
H        23.82816975180013    7.28960207641862   11.84857237247794
C        23.41011686639781    5.51860562461621   10.70653471879975
H        23.22203458331197    6.05750067655921    9.78985146839253
C        23.30486942412385    4.13790515006348   10.73894988803324
H        23.03993638555374    3.59597618588116    9.84418878863648
C        23.53507686216074    3.44957665901678   11.92049037826751
H        23.44660460428572    2.37383635184275   11.94407871882064
C        23.87073152224971    4.13516516168149   13.07314229070299
H        24.04257009827604    3.59659070469498   13.99524954898022
C        25.45209177720623    5.46570458312733   15.51051842114174
C        26.43264002854188    4.70172198317979   14.88055713334050
H        26.46530666929646    4.64644735676118   13.80118985718751
C        27.35697758973186    3.99888965950610   15.63200109660355
H        28.10518608114311    3.39963125180810   15.13457571075880
C        27.32449362181333    4.06240740533797   17.01582836286060
H        28.04832389461868    3.51486833935169   17.59979093140856
C        26.35962822919243    4.82982133088805   17.64791866117672
H        26.33065623176052    4.88657839070132   18.72561874287906
C        25.42980485671369    5.53163290494851   16.90213929914650
H        24.68913980694010    6.13312142453258   17.40786994720017
C        22.70365143511280    6.28124481506671   15.40438163221858
H        22.54297546026290    5.20576553941245   15.52725803373482
H        22.77431106395250    6.75120629456098   16.38707672395390
C        21.60301670940039    6.90493793533998   14.59979976420467
C        20.89208930089579    6.15205083556043   13.67224525956758
H        21.13219105946098    5.10767798281698   13.53384647345668
C        19.86680547172393    6.72262768749066   12.94000370878636
H        19.31980510369822    6.12327891905719   12.22836402096962
C        19.53342804723414    8.05280613232187   13.12960238739395
H        18.71868563464242    8.49022945426262   12.57238328792337
C        20.24006583887168    8.81304520873427   14.04606597685460
H        19.98392947937736    9.84971171995674   14.20771156342362
C        21.27396633549966    8.24489605248425   14.76884431137848
H        21.81405958772102    8.84831422161960   15.48625362170338
C        26.47915216668484   11.09323970107997   12.18186529014439
C        26.08142169645035   12.30739794207466   11.63373072034869
H        25.12550997063387   12.39555463250937   11.13782178399162
C        26.91202823088686   13.41047791733412   11.73035334542240
H        26.60139451882743   14.35105708403729   11.30155821081473
C        28.13746602952375   13.31073103779373   12.36820560517022
H        28.78681866619413   14.17064813789282   12.42695584709945
C        28.52313423156528   12.10961810956016   12.94250562807903
H        29.47292798454428   12.02940621070350   13.45003913200242
C        27.68987302255913   11.00915358364777   12.86761472368847
H        27.97509270494158   10.07577043790588   13.33928120922614
C        24.02342369681568   10.00411747992336   11.12447390190843
C        22.77914526746751    9.84706596479143   11.72789092449388
H        22.72336130079205    9.47651222579825   12.74522585392119
C        21.62431262049182   10.15397852094783   11.03173431953877
H        20.66380222190709   10.02553988780787   11.50572574751858
C        21.70523483699329   10.61697151848872    9.72920931621385
H        20.80523235817563   10.85812216286960    9.18468444699062
C        22.94193324901246   10.76945389295065    9.12131940571611
H        23.00377337941964   11.12872695864900    8.10515039668326
C        24.09998464864617   10.46348109632000    9.81157674645171
H        25.05967425674163   10.58892134632117    9.33084794497638
C        26.50406575221876    8.59356525237809   10.88815372581573
H        25.89481368154884    7.73867118068963   10.57792561107731
H        26.72178602908193    9.21741584418289   10.01772175785047
C        27.76552592656526    8.13725972902674   11.55097803458647
C        28.99906857276394    8.67007487588578   11.19920551187368
H        29.05954569055851    9.40781913881487   10.41211481318093
C        30.14926899137095    8.26230687770773   11.85271958087763
H        31.10241962394637    8.68286743953354   11.57103746189462
C        30.07881464830703    7.31817263151170   12.86225487793238
H        30.97579760564156    7.00119961889808   13.37129815324329
C        28.85356183616275    6.77742699620432   13.21562968115057
H        28.79223742536984    6.03425563974226   13.99570076003348
C        27.70538288298098    7.19079188686501   12.56739054376944
H        26.74162420847598    6.77224758980784   12.83954705139634
C        28.15465537181042    9.13819600800307   16.08463929474654
C        29.14913823409470   10.10261491915038   15.97419393274890
H        28.88994354647323   11.13698459813715   15.80396142022957
C        30.47829867090574    9.73490788172362   16.09268970793658
H        31.25018291542766   10.48569786635252   16.01188356891033
C        30.82140457549701    8.41300660908049   16.32141462418131
H        31.85966946160869    8.13537631026577   16.41979394731537
C        29.83207064901463    7.44774356101932   16.42629777003052
H        30.09572113521299    6.41636449656299   16.60729320576233
C        28.50478467855755    7.80547537649831   16.29580329282896
H        27.72367178531482    7.05961731518895   16.37073384184846
C        25.67367059370672    8.96296179177795   17.46313238890634
C        26.41341338317445    8.75595907413035   18.62067967839402
H        27.48856197864682    8.86329694845348   18.60609959471569
C        25.76550687289618    8.40876898780466   19.79335052316079
H        26.34032043309236    8.24569241378310   20.69253416897064
C        24.38620277987017    8.27832460469837   19.82191566834071
H        23.88873822045502    8.01161693931854   20.74178008903315
C        23.64432306239151    8.49030101211101   18.67051277360999
H        22.56831928301922    8.39391610108004   18.69211970675935
C        24.28899343468716    8.82488707643779   17.49452886230715
H        23.73079611569786    8.98982864095351   16.58024084041453
C        26.20488485888684   11.31584256582949   16.05595261740241
H        26.70158015198076   11.63045564402058   16.97839966841639
H        26.67659815072809   11.79215887648272   15.19193735260768
C        24.73614325298097   11.61257759590896   16.09073945175341
C        23.98929385625066   11.56001117930436   14.91881225039362
H        24.48956369895231   11.35960663855730   13.97743971582302
C        22.62390848976941   11.77751702184918   14.94086889259834
H        22.06187585456167   11.74214749881129   14.01920334993207
C        21.98476818110647   12.04176465849016   16.14129074861435
H        20.91866171107018   12.20913302341589   16.16302483993309
C        22.71955709144847   12.09649974465289   17.31343262678243
H        22.22771933710403   12.30611658123162   18.25097485601584
C        24.08673118715363   11.88064475961254   17.28941098551515
H        24.65447095617483   11.92356688509400   18.20792351064322

