77
CSD_code = UKOMUD | q = 1 | S = 0 | Stoichiometry = C27H36BN9O2PW(1+) | MND = 7
W         2.99878858145151    7.46121127620530    3.70492767141253
P         0.63170017438957    7.76615270798261    2.88197102488670
O        -1.97765317880107    2.66197816448684    3.87123326915457
O         2.20514286899620    7.55772934515213    6.54046517811979
N         5.68327236053966    4.97287838429437    5.10902180207270
N         0.03365254123507    3.37746900591403    3.12991154292658
N         5.03077817801580    8.04386078488766    4.22501244430990
N         5.74095035468714    8.81421992113375    3.38732823225835
N         3.65690028038927    7.51454583821904    1.63677533826525
N         4.50100544634389    8.47358075376310    1.23768019976128
N         2.97290914651535    9.60679276587322    3.59190762636283
N         3.87240675391088   10.26560584792208    2.85025154122172
N         2.50953670000722    7.50503938760206    5.39795483218351
C         6.68565479953131    4.96203164784563    4.04856267175359
H         6.57490288525440    5.85424864465904    3.42404069931920
H         6.53432123226316    4.08006967507733    3.41868107111975
C         8.04960607331275    4.92353098751036    4.75551240739851
H         8.64496190967969    4.06544045131715    4.44324485293313
H         8.63303195474188    5.82364269198342    4.55530289979417
C         7.68790096991451    4.83597265299463    6.20804552438688
C         8.50777793225113    4.74127324185944    7.31151441577366
H         9.57996394927885    4.71042503076724    7.19760313035250
C         7.92525995896426    4.68589164187041    8.57117828045321
H         8.55177087747811    4.60978159096458    9.44550539517677
C         6.54753673414593    4.72746670091172    8.71546398597568
H         6.11172474649032    4.68460283822373    9.70105550986222
C         5.71366917860937    4.82290286086027    7.61156947509291
H         4.64369752818330    4.85381209938049    7.74380011832708
C         6.30206044690155    4.87430433833430    6.35877561590106
C         4.38063494802207    5.13473498932403    4.89494800553584
C         3.78758672422231    5.29225796217941    3.64733784584604
C         2.34299294289441    5.31953603886694    3.46019100421501
C         1.43267436100345    4.82268419421992    4.50048345323048
C         0.38996833336298    4.00364166864084    4.31420952244075
C        -1.13962081117807    2.66236331226110    3.00570712542345
C        -1.25087579958705    1.92809105278044    1.69303188198522
H        -0.49494214311332    1.14650602759194    1.64205727748134
H        -1.10874826902953    2.60876618883822    0.85598183397143
H        -2.23323431569995    1.47144831682777    1.62210838260292
C         6.91091037337125    9.14124709072420    3.95737158997155
H         7.62480076329858    9.75485344168367    3.44741021783202
C         6.95866986790160    8.56915581908846    5.21164931189823
H         7.74500083702862    8.63178703703691    5.93393172457141
C         5.74136772583824    7.90469115163766    5.34016795087743
H         5.35931005174332    7.37345089705361    6.19088487493601
C         4.74251817824666    8.36076291017187   -0.07610039160933
H         5.39607582321175    9.03950774386742   -0.58346977096459
C         4.02740927782999    7.28306305518762   -0.55473552827541
H         3.99108259201022    6.91165177569358   -1.55704007400902
C         3.36187966347131    6.78678370961863    0.56241567554974
H         2.70112630229388    5.94205131524504    0.61560312844909
C         3.72516848719984   11.58521109411779    3.02872194542584
H         4.35552780238486   12.28974939264347    2.52625280994048
C         2.68928076390990   11.79145821268308    3.91796834827063
H         2.31223096597167   12.72544449452794    4.27775774853117
C         2.25380265686006   10.51205594176724    4.25047535882179
H         1.48011773837753   10.21611545592961    4.93594479022491
C         0.30294788640725    9.31012027025154    1.93955123877428
H        -0.73313311716138    9.31841744282325    1.60282459190436
H         0.95850725090425    9.35053159316431    1.06930216151516
H         0.48173946450851   10.18878020249373    2.55479829747398
C        -0.21674870366743    6.57869243851374    1.76945432575088
H        -0.32524989767915    5.61777857999636    2.26401301905163
H         0.33791781535533    6.45883440535056    0.84119700798742
H        -1.20849266091749    6.96570633587166    1.53764741294891
C        -0.59027092710463    7.85465707338371    4.23519242266251
H        -1.57173860382419    8.12140747884429    3.84472931737149
H        -0.28005473053611    8.58728156568200    4.97677056146131
H        -0.64232242195008    6.87959518066287    4.71794759357484
B         5.05448615199102    9.51927514603848    2.20011923072363
H         5.79099584462922   10.25897281001355    1.65401977336914
H         0.71235413655038    3.32843522644654    2.38436163841451
H         3.75783042306355    5.08988186336235    5.77994122713547
H         4.39931416523734    5.09020988620197    2.76658209501592
H         2.06250931152859    4.95871990417980    2.46795995584474
H         1.58367437479113    5.17578373556379    5.51080677118428
H        -0.28781298865166    3.76108729298045    5.12041855811956

