76
CSD_code = UKOMOX | q = 0 | S = 0 | Stoichiometry = C31H39F3NORh | MND = 7
C         2.70355404580656    6.49781711749515    3.75339427161257
C         1.93765592719051    6.52685006070615    2.54460317962182
C         0.83274454009630    7.40880120155218    2.73764766949920
C         0.89009558453767    7.89781043196627    4.09094400867619
C         2.04257297639828    7.33779921504777    4.71247684219673
C         4.04295299835253    5.86022697591706    3.93159629345219
H         4.15549246571462    4.99730140466571    3.28047493729151
H         4.19102692151696    5.53766199745176    4.95883589142234
H         4.82341093907658    6.58261493337693    3.68306777280676
C         2.34377746615796    5.91522113481062    1.23849397186142
H         1.47225744984304    5.66626013740797    0.63807355567237
H         2.91851443794643    5.00629665946022    1.39684291597402
H         2.95988546872721    6.61994541550483    0.67689616058379
C        -0.11032706139203    7.87897263419094    1.67584025328210
H         0.31413252730194    8.75029345221899    1.17268365120620
H        -1.07086023730608    8.16564864497616    2.09807229941927
H        -0.27720228222693    7.10468830050425    0.93081341146130
C         0.03433846065129    8.98649005767143    4.66127608242239
H        -0.04562311702438    8.89719739632172    5.74259581174944
H        -0.96673124882818    8.96534419902130    4.23665469002088
H         0.47992289717812    9.95619357555955    4.43128258397341
C         2.59547377705604    7.73594630011838    6.04584207403443
H         3.24937001853570    8.60139893559733    5.92370652945874
H         3.18104350332761    6.93231839666734    6.48526751593384
H         1.80174457545957    8.00515870670010    6.73964675783029
C        -0.62062958847797    3.24292479900739    4.21395620594411
C        -1.13167223677100    1.95912075896949    3.91125025162582
C        -1.83214428526781    1.31350307106271    4.90654381068925
H        -2.22276619391933    0.33145802431771    4.70202900771026
C        -2.07126034552585    1.85384806000332    6.18360083094329
C        -1.59242169297476    3.11174723511656    6.47038384146986
H        -1.74996997822453    3.58633604616848    7.42557387423748
C        -0.86657700504386    3.80025764164239    5.49386415176629
C        -0.33939715602546    5.71081237931359    6.84657340115083
C         0.61505413189293    5.42322073491079    7.83808977536695
C         0.63038180510528    6.13047984769555    9.03229627803762
H         1.37375645261963    5.89697584338683    9.77915578140107
C        -0.29720325699863    7.12994771920469    9.26043824918905
H        -0.28220644111487    7.67420948697520   10.19140403326283
C        -1.24045700231254    7.42934619949788    8.28774973595103
H        -1.96499613696393    8.21080884713362    8.46351354693146
C        -1.26278806745920    6.73090317956666    7.09875374253100
H        -1.99464494027954    6.95119720258163    6.33548070187712
C        -0.88165612611496    1.36128631244147    2.53654244475802
C        -1.51106918551485   -0.02318560293231    2.36403468409258
H        -2.59108020933500    0.01877051568056    2.48763615832907
H        -1.09672949674642   -0.73387745237727    3.07553596951139
H        -1.30122356986976   -0.39092852438801    1.36135852478560
C        -1.47589893625408    2.30019938045670    1.47775117847778
H        -1.29953510347122    1.90290840024898    0.47998776682250
H        -1.01786889137792    3.28224547664315    1.54862696228471
H        -2.54913506828447    2.40449946230658    1.62629856114288
C         0.63329142253667    1.23835521008697    2.32476010172193
H         1.06552578409357    0.57945148716723    3.07521240782800
H         1.10345841520839    2.21368671309123    2.40778372271331
H         0.84434061311956    0.82969699878442    1.33829642855132
C        -2.84413576036382    1.02103047733681    7.19477695737006
C        -3.00528534448568    1.73568412149258    8.53931993680083
H        -3.55405990036002    1.09589719099923    9.22788789471483
H        -3.56193150205425    2.66316149972592    8.42564975670394
H        -2.03535402961456    1.95341414302129    8.97995472277734
C        -2.08663420398401   -0.29058884806466    7.44465443246384
H        -2.60205787449940   -0.88473967926790    8.19680392669791
H        -1.08106705070264   -0.07613481067434    7.79948279781861
H        -2.00872239588026   -0.88343192186155    6.53786878335225
C        -4.24422423946062    0.71915475905168    6.64228415625369
H        -4.19153487015095    0.15708472464848    5.71424857266431
H        -4.77844874534036    1.64696310426019    6.44834346140986
H        -4.81417827059176    0.13542328117822    7.36249526009567
C         1.64232337748666    4.35806112274312    7.59181452737705
F         2.17861165181149    4.40466997022686    6.35316988522554
F         1.16747817240605    3.11025560804141    7.74924533588976
F         2.69204587945488    4.45572591453643    8.43067435536015
N        -0.33804975770036    5.04902901753079    5.62583214267435
O         0.08449803445896    3.98437592042406    3.40399856817934
Rh        0.66862608512761    5.71150166591405    4.12708326362821

