76
CSD_code = UKONUF | q = 1 | S = 0 | Stoichiometry = C38H27N8O2Ru(1+) | MND = 6
Ru       10.24158545238653   14.27162108653259    7.81786584122150
O        10.26306336453368   16.12972089684481    6.84198677203687
N        11.58929118130037   13.75412118010698    6.51744412284111
N         8.46366827119074   13.69378427814103    7.04663265300832
N         9.10550427251569   11.73125371151108    8.05636396444696
O         6.78851114691214   17.43207678772800   10.55384983068704
N        10.17387353364926   12.40496972932990    8.31674746406081
N         7.95952451456937   18.38779242916508    8.21170675815155
H         7.29044493767285   18.66877392554426    8.91536388794643
N        12.74916407227598   14.28041985908917    6.63503013490605
N        11.91764024428977   15.06394165924364    8.64215068376861
N         9.03018480697627   15.03148146672809    9.32922922316640
C        12.07130018131549   15.78685743940520    9.74893966921916
H        11.26850041816518   15.73735289743789   10.47514102314080
C        11.42709914742886   10.35349136256438    8.03727054841053
H        10.64129055901300    9.99351064605995    7.39115582291062
C        11.50945916137535   12.72049078024362    5.58621316345222
C         9.51214669607524   17.10346556139102    7.12613081672957
C         8.60112358370013   14.43824706389695   10.51556704045218
C         8.42274514779348   16.22597917271471    9.23587607271138
C        14.07197727489984   15.84006199082642    7.88518014252737
H        14.81700494249665   15.82334605107394    7.10766526324689
C         8.60775421138818   17.17879028284290    8.25169808457471
C         9.36002992106860   18.34910884685442    6.42594042149385
C         7.48602930056254   16.45027374898444   10.38822785324322
C         7.65027490159624   15.24327667453851   11.18274100123753
C        11.29025180113351   11.61854827350549    8.61945360184503
C         7.54886984028272   14.41505124139852    6.40054624866552
H         7.86186581019185   15.38831585972070    6.04248810458615
C         6.84042400826862   11.92277443386918    7.28240190463504
H         6.62733901975113   10.93614940727337    7.65715401390725
C         9.95660515419352   18.86363328750945    5.27479674240108
H        10.68968519342028   18.28175666016024    4.73820375837307
C        14.21149608245562   16.58775752253059    9.03316934476407
H        15.09318411291279   17.18697517541870    9.19571449359019
C         8.62947838961941   20.86099891716669    5.55877345500751
H         8.36073669741304   21.84261541184580    5.20058028725983
C        13.19252709685364   16.55967858806163    9.98387604289722
H        13.26688531511806   17.13151246590499   10.89409079061510
C        12.28920349661517   12.10067248216605    9.46800185702207
H        12.15488379681292   13.04730361131329    9.97225039871988
C         8.12229081516114   12.45334630691591    7.48531782750146
C         7.07755244285224   14.84974901913193   12.37959827068761
H         6.35079064478976   15.48331610512756   12.86326991809093
C        12.90408527498118   15.08774511024895    7.71008813439583
C         8.39560758171973   19.10712791738625    7.13536479586377
C        12.59535997457908   11.85441580391415    5.41376138994530
H        13.49236183183400   12.02693141587844    5.98888634226005
C        12.56226459717860    9.60629760279274    8.27573201483365
H        12.66907322640979    8.63685557314685    7.81495194186278
C        10.34175783220953   12.52368522145205    4.84738421731876
H         9.53506215322685   13.23804375858358    4.92357134446212
C         9.00188484802279   13.24196380512983   11.08639199605372
H         9.75390243594861   12.61831331293406   10.62909815378021
C         8.02596270643800   20.37188996046240    6.70185379384538
H         7.29437178114891   20.95083038294120    7.24229945599586
C         6.26661801943325   13.95780405408003    6.17358394271036
H         5.56094775890965   14.58143784715790    5.65027281953897
C         8.41821365209326   12.85457679814405   12.28588147161408
H         8.72200817279587   11.92006941866952   12.73231905150732
C        13.41785695338643   11.33964593336290    9.70270961977173
H        14.18427170372360   11.71187822676404   10.36483866160933
C        12.49121676500723   10.78851895688048    4.54426200731241
H        13.32478391226806   10.11450891671476    4.42335107407163
C        11.32062651281243   10.58274036341721    3.82841794281043
H        11.24222217063334    9.74709406334158    3.15069164712086
C        13.56244735908525   10.09822173853870    9.10134109896979
H        14.44889018980348    9.51170296187669    9.28486528902185
C         9.58060744341319   20.11997563979574    4.85296052464077
H        10.02379958484672   20.54308194256830    3.96529098100379
C        10.25457126628110   11.45830919623447    3.97266440723972
H         9.35486729915855   11.31404056807007    3.39459611741182
C         7.46715328290594   13.63722906101435   12.92602837987160
H         7.03784058624383   13.30276744120093   13.85699031528583
C         5.90458771318070   12.68870878740526    6.62759844403144
H         4.90591444732764   12.31662392206244    6.46344730367568

