38
CSD_code = UKOQEQ | q = 0 | S = 0 | Stoichiometry = C20H11O5PW | MND = 6
W        11.63451962191549    2.58958598049078    0.60163296574627
P        12.60469208879656    1.56775407747509    2.64500099236460
O        11.80219276701114    5.41896194981048    1.95980968158069
O        14.52564045178683    2.97447202026548   -0.57110093610127
O        11.47758711301966   -0.24709812301385   -0.74086710486973
O         8.72280579803044    2.21038652057730    1.72124066969545
O        10.44540672001430    3.89314170981267   -1.97413607035153
C        13.76870561701927    2.26962862713333    3.93338599466809
H        14.04764669914703    3.31375580144447    3.77933814903860
C        14.93948218058193    1.31613909678550    3.98475187406279
C        14.60994653687604    0.01753898834641    3.58863021708415
C        13.24671321226359   -0.10777679999631    3.04042995780854
H        13.05261090850829   -0.94527826904876    2.37835329838890
C        12.03555163766225    0.34055009998084    3.88896675927855
H        11.12867181874700   -0.23255318298290    3.72634881440132
C        12.25437139560496    0.89089381329027    5.23945822041892
C        13.11271398688742    1.99301985093994    5.26584315048623
C        13.38526036803074    2.64105933989910    6.45387234162998
H        14.05455291514004    3.48834054749921    6.47327792809248
C        12.77153834026465    2.20204523373474    7.61820555902683
H        12.96095252433748    2.71667106411241    8.54799603836100
C        11.91748873701377    1.11273315782034    7.59424740816580
H        11.44764568026064    0.77847057742884    8.50687537217178
C        11.65417247133976    0.44961591907034    6.40535211323239
H        10.98634874052503   -0.39886015499469    6.38597716328456
C        15.54930323439311   -0.99458498511862    3.67470949661988
H        15.29808283728627   -1.99785113021055    3.36387119684293
C        16.81518880149170   -0.70258484267977    4.15928394835324
H        17.55572486144806   -1.48548358328063    4.22283025739421
C        17.13772727806914    0.58426342822907    4.55491009380814
H        18.12973141786089    0.80180598019310    4.92071404432176
C        16.19550580615093    1.60014379667996    4.48200379890306
H        16.44591466423456    2.60311281396119    4.79437758191489
C        11.74079081995117    4.39072977991450    1.47050916022094
C        13.48379860895644    2.82963977001511   -0.13120303603054
C        11.53447361213864    0.78260831893680   -0.25319950351038
C         9.78327966265155    2.34702560350614    1.32523648751940
C        10.87966006458368    3.41617720397521   -1.03233408401999

