92
CSD_code = UKOSUK | q = 0 | S = 0 | Stoichiometry = C44H30F6IrN7O2P2 | MND = 6
C        15.61843584301772    9.01739097354467   23.75737269295080
C        14.38700758339170    7.62574957540444   25.02595931297250
H        14.37909421030913    6.90905486989878   25.83649071233910
C        13.25078419714541    7.97871956201898   24.31263897224828
C        13.41299593707718    8.92408645492741   23.26052424976311
C        11.88760469395518    7.49912595019758   24.49027047605200
C        11.46790139354929    6.60763800766308   25.47124349758698
H        12.18065729802548    6.20872111285008   26.17470157197591
C        10.13316393116315    6.24674880804688   25.53353828817535
H         9.78726637024770    5.55716975875963   26.28815114507315
C         9.25062319683839    6.79167952622532   24.61317271327814
H         8.20192493419983    6.54255996902745   24.63152097104307
C         9.73699711230683    7.67375734735577   23.66346783413508
H         9.08484214121407    8.12712718640491   22.93090953121160
C        10.19850166325949   12.22440442630364   24.59163174634640
C        11.31099938409656   10.92820518815854   23.10962760493732
C        11.56013890669132   12.08907069806787   22.32797588152640
C        11.03806408702936   13.28623667804692   22.79454465388446
H        11.13993518172185   14.22155892786511   22.26050264761691
C        12.33855420891067   11.85700014630297   21.12058796372018
C        12.79590303063626   12.84566421880826   20.25727685555482
H        12.54318243088214   13.87745264088053   20.43882851304076
C        13.57281521555664   12.48407955549008   19.17141271635962
H        13.93171079517810   13.23410568924698   18.48352353855632
C        13.89725321691968   11.14772656607111   18.99648520043642
H        14.51989547514592   10.82500432617102   18.17805358576176
C        13.40876464119673   10.21770836719905   19.89757395612846
H        13.65468874523524    9.16956129950798   19.80007328947833
C         9.43019416076945   12.31037401006901   25.89451786292199
C        10.21215639683294    6.16232264971487   19.48022964489475
C         9.65093285028691    5.67086837380532   20.64750059214040
H        10.11159601266484    5.91306851855778   21.59543539024171
C         8.51873063571391    4.87750698091729   20.58796774172582
H         8.07810879856839    4.49494206127289   21.49780377145328
C         7.95030970939731    4.57679658994075   19.36179583690131
H         7.06335669207370    3.96206402020494   19.31465198076327
C         8.51587146758680    5.06222740905772   18.19265378782601
H         8.07009632335828    4.82458026325282   17.23787955275462
C         9.64463373305295    5.85632942416361   18.25123362216078
H        10.09490685739641    6.25280750314285   17.35156279468777
C        12.85424119031113    6.72424141886346   18.41164158983612
C        13.57540119977050    5.60062125567075   18.78774912975065
H        13.36291022446353    5.13865624866206   19.74210217726016
C        14.55462741501957    5.09702726910996   17.95128701059362
H        15.11937279680744    4.22299522500829   18.24173364679136
C        14.80956863010500    5.71637922010641   16.73756051616835
H        15.57306716936319    5.32236934273343   16.08259843228327
C        14.08951542025539    6.83905037265351   16.36197196188288
H        14.29220394813706    7.31814956021278   15.41462638559295
C        13.11077896632274    7.34439370218557   17.19955106864111
H        12.53748129962864    8.21996519654777   16.93329079928977
C        16.98339813166036    9.58983579913845   23.43222426039322
C         8.29787701476122    8.79266336969481   18.97690175217515
C         7.37041122381953    8.20230122246714   19.81954635831285
H         7.53679876573980    8.22706233343031   20.88673616554273
C         6.24682682096133    7.59298388851992   19.29059313557202
H         5.52418757178175    7.12951941857016   19.94655949579673
C         6.05106293102076    7.57585502257925   17.92011401988635
H         5.17528054563631    7.09706391571033   17.50691783484493
C         6.97558279605114    8.17165163231999   17.07615181253187
H         6.81838353654665    8.15788746540576   16.00723546855657
C         8.09960029305982    8.77755417379452   17.60385017497514
H         8.83840143830195    9.23838571528439   16.96322585018114
C         9.91665809617084   11.20519986555117   19.05289564202868
C        10.61543970723616   11.56740817416160   17.91229357790251
H        11.11650885376154   10.79997280983273   17.34188744849838
C        10.67399711670448   12.89676516323907   17.53387364676517
H        11.21478136046074   13.18190254486837   16.64289027317748
C        10.03975126343974   13.86360133269300   18.29736387914199
H        10.08861601869562   14.90138745909300   18.00112271211117
C         9.34067560167134   13.50303399134232   19.43852272836138
H         8.84485860735341   14.25680197752162   20.03275150000114
C         9.27642003577880   12.17354103406131   19.81282769900582
H         8.73800292820365   11.87087926002762   20.70033348028472
F         9.02889102512051   11.10994020092697   26.32849302471640
F        10.17254549639435   12.84441350092597   26.87757509620867
F         8.33174426842548   13.06860728326751   25.79005837355073
F        17.80608058474619    8.65658357287838   22.92639706949845
F        16.92256744141416   10.57376885486068   22.52862885156056
F        17.59562023641990   10.09302896721857   24.51165533734012
Ir       11.78356112990386    9.24660529456440   22.19417494038640
N        10.35649866121498   13.35367565907017   23.93054905631711
N        10.63315128475675   11.02683374181474   24.24081064090863
N        14.61078352277952    9.42732790012169   23.00876289978992
N        15.57401505827067    8.14772482931707   24.74741904107509
N        12.63203647043020   10.55575405927152   20.91646660846893
N        11.01646012372960    8.01579027864996   23.59395430104808
N        11.11110193060116    8.76422418920755   18.89590123578857
O        12.14134657927240    7.39978183597558   20.94986351382425
O         9.79312477105003    9.43636110722133   21.13067053758572
P         9.84899706436876    9.48487732446656   19.62743594443059
P        11.59038596949846    7.34839938466133   19.54815919273787

