82
CSD_code = UKOSAO | q = 0 | S = 0 | Stoichiometry = C16H45B18CoN2 | MND = 10
Co       -1.98887162040677  -15.66140749682955   -6.22908561465277
C        -0.10463539389697  -16.63651194034579   -6.70227083581548
C        -0.06090558200478  -15.97201064503276   -5.31105276404571
H         0.39788568311920  -14.99272290075891   -5.27194162956766
B        -1.46066129331435  -17.56835047240044   -6.85936374382189
H        -1.86013322003512  -17.83026584377448   -7.94150773390901
B         0.13434872949488  -18.35352280518376   -6.52680214915223
H         0.66075669703630  -18.99352772813061   -7.39575507312850
B         1.06666229988153  -17.26150192461995   -5.53212431282777
H         2.19933543849516  -16.97654889706606   -5.74718073196389
B        -1.35244985600998  -16.36483671411495   -4.36687355111307
H        -1.70271757608616  -15.62963122945425   -3.51383311895659
B        -2.32623649717179  -17.47403676137055   -5.30842831749808
H        -3.45852612018635  -17.72699673521740   -5.12615476452383
B        -1.27689452929646  -18.87427525683300   -5.64713914561675
H        -1.73594288455291  -19.94627633663362   -5.82260023336513
B         0.30441787907878  -18.66570202876129   -4.80558226343058
H         0.94612520595331  -19.56986490796373   -4.40360806951348
B         0.24246520095443  -17.08202956762996   -4.01837958973487
H         0.84542634775832  -16.70031644109440   -3.07875189258265
B        -1.19743705929205  -18.09711193904831   -4.04899333492058
H        -1.62760084174792  -18.60177389775650   -3.07459210636970
C         0.63039416910572  -15.90114720727282   -7.82054636816104
H        -0.02702073819385  -15.24839372172194   -8.39569087995900
H         1.43704022555379  -15.28847428396422   -7.40566556750043
N         1.23407789322815  -16.87297036790643   -8.78361847670874
H         1.21235828136092  -17.78264611754916   -8.25019505835047
C         0.38929561847013  -17.07761189986690   -9.97687191711527
H        -0.63012063268859  -17.27758055875765   -9.63691408096248
H         0.39124178415406  -16.15859520092573  -10.56897267572216
C         0.91676299424545  -18.24263277246741  -10.80246174489857
H         0.28674611107508  -18.36751950985171  -11.68226079718979
H         0.85530855042749  -19.16289097674445  -10.21818721504266
C         2.36327889894136  -17.98480165089831  -11.21577481478706
H         2.75743998738677  -18.84210733776753  -11.76016950082153
H         2.40769011054640  -17.11936226654028  -11.88003719541907
C         3.21015985130345  -17.72300513590127   -9.97336193433878
H         4.23374834772348  -17.47578776787974  -10.25500302838115
H         3.24344594174773  -18.62205495222949   -9.35397813128694
C         2.62340570312811  -16.57219376164803   -9.16351165450797
H         3.20996245791930  -16.42012390472012   -8.25465063523312
H         2.63516286761492  -15.64878762003696   -9.75010229687648
C        -2.49124151396351  -13.57597456692280   -5.81507533183549
C        -1.87578935446526  -13.75449192091553   -7.21081115523191
H        -0.82531925591169  -13.49022082991593   -7.30386280423019
B        -3.68557394520899  -14.73057875217758   -5.57354475277504
H        -3.96666159975000  -15.04400791140834   -4.47554113344578
B        -4.11093131105077  -13.02920000362838   -5.93095670706126
H        -4.52330558830270  -12.36471258370769   -5.04799906304338
B        -2.91527055780120  -12.38005293133037   -7.01767065924248
H        -2.42728767026903  -11.31177980271121   -6.90819476847728
B        -2.57256039907800  -14.97704575420454   -8.08355871465119
H        -1.94778116168619  -15.50488938361713   -8.94820720723237
B        -3.84528603899812  -15.65945584817791   -7.09188497692162
H        -4.31647782044469  -16.72768371629544   -7.22348995118061
B        -4.96367541525837  -14.33048523903433   -6.75310048755963
H        -6.10078295593295  -14.55362990893553   -6.53728987212140
B        -4.46925965863552  -12.87891921269442   -7.66238061074125
H        -5.23160064471847  -12.08480263113428   -8.08473093442159
B        -2.94745804732136  -13.28609541826531   -8.48493470877972
H        -2.46670149426791  -12.83037724558680   -9.46545711593828
B        -4.23904101541921  -14.47795113339777   -8.38055053186581
H        -4.83722123847960  -14.83514448007284   -9.33338178912206
C        -1.69102133724305  -12.97942526147261   -4.65213668891873
H        -2.06249907919747  -11.96343828520047   -4.43702934045679
H        -1.90517070024257  -13.57552469194514   -3.76417613573738
N        -0.23188235214827  -12.93551778022481   -4.81107596709134
C         0.44429874729843  -13.07614318668772   -3.52648605615304
H         0.07911854150574  -13.98124501519709   -3.03784897228709
H         0.22204378465255  -12.21533421294686   -2.86982261870463
C         1.95757676812824  -13.18206121864200   -3.70651940950209
H         2.19610458272473  -14.08732724630328   -4.26834163987202
H         2.42651214068865  -13.26947307593672   -2.72513627926594
C         2.49583453273889  -11.96317575514781   -4.44812742532573
H         2.36342594300214  -11.07207035999922   -3.83009679211937
H         3.56362142542432  -12.07659270045136   -4.64901447770130
C         1.71856142520532  -11.79135771216092   -5.74818349042195
H         2.03552296787898  -10.88581907674350   -6.26934632144705
H         1.91170651320045  -12.64468958108247   -6.40387132104847
C         0.22324620783011  -11.71184311375308   -5.45147583164348
H         0.03195229183021  -10.83260236470809   -4.80733331422924
H        -0.32681514712328  -11.56085060252346   -6.38005969226618

