75
CSD_code = UKOSEU | q = 1 | S = 0 | Stoichiometry = C37H30IrN6O(1+) | MND = 6
C         1.84787782016986    6.13541283234215   12.48582440874605
H         2.72974209002381    6.59973991820004   12.06229235494445
C         0.70822933220322    6.88126018462108   12.70761312293249
H         0.68264859093958    7.92540439460338   12.44194672369458
C        -0.39153857745202    6.25569457084277   13.28444063378643
H        -1.30223641966487    6.80430603949448   13.46620456670359
C        -0.28599451823279    4.92707871145723   13.64029570774716
H        -1.11300777182367    4.42637423171988   14.11511242208916
C         0.90053217229747    4.22990704355790   13.40184927531413
C         1.16119532429118    2.85886051066433   13.80842872340758
C         2.47618960656174    2.40307825381453   13.58828968149816
C         2.81111536633232    1.12587345706818   14.00617681211482
H         3.81294274447953    0.74771984237472   13.86569553552912
C         1.87042386698498    0.30942659422747   14.61546395871756
H         2.15065671746167   -0.68318971933334   14.93544387985202
C         0.57357584326162    0.75707074367873   14.81323766742096
H        -0.15590030006987    0.11387263712501   15.28098030748590
C         0.21746131544240    2.02894179745342   14.41573907550446
H        -0.79395078403049    2.37075197273319   14.57344527304551
C         5.47176145621857    1.53152075668286   11.51573232233024
H         4.69073485214582    1.33221091228863   10.79705921202006
C         6.62646605878918    0.77458006317382   11.49648540711558
H         6.75725134263301    0.00885480564683   10.74964941005460
C         7.59663888595201    1.01834205894167   12.45944959643471
H         8.51233467507579    0.44830750731040   12.47711095030257
C         7.35632687504302    1.99449697088576   13.40440618738297
H         8.08262910273943    2.18985186520937   14.17545545070398
C         6.16608000690628    2.72283729718331   13.37200969155561
C         5.79590677358126    3.74553833136906   14.34022670543700
C         4.51842497800854    4.31976465915869   14.15681283816062
C         4.10672195252792    5.27738603123691   15.07612818914328
H         3.13038973296602    5.73316655087744   14.99011988120302
C         4.92280609319491    5.66849537134425   16.12605239410463
H         4.57531037330947    6.41426681013865   16.82538713807667
C         6.17977982864100    5.10653280646104   16.28465096697083
H         6.81281286552911    5.41445921291993   17.10238665256829
C         6.61596184510244    4.14492136724490   15.39706216499337
H         7.59383884234944    3.70832320343101   15.53018046185394
C         5.89203866921119    5.49106345641092   11.33253036248607
H         6.17154920908827    5.33207353709056   12.36424994555991
C         6.77552278335285    6.08142282691384   10.44566109267685
H         7.75780732173477    6.37495767701928   10.77716662262590
C         6.36739567384377    6.28238410851494    9.13749689441710
H         7.02595591512712    6.73036618039480    8.41013667881328
C         5.08203948874617    5.90320061898636    8.78474885561167
H         4.72126988448304    6.05964762298633    7.78018004869591
C         4.25679593260563    5.32693649025433    9.74083433101260
C         2.83323768087270    4.96215024328201    9.37738461523946
H         2.14442514620156    5.48808233568928   10.04910982245217
H         2.62183380031519    5.26494080298021    8.35037885276875
C         2.22483761151854    2.67030620842695    8.53878053128990
H         2.06449904951475    2.95638802845687    7.52204644690552
C         2.12354183912532    1.44957462967681    9.19593374775739
C         1.77947023355369    0.13328559484325    8.70199401483784
C         1.52148066051849   -0.09620159297165    7.34833131489956
H         1.57222465832681    0.71644511252204    6.63989830267545
C         1.20255454567840   -1.35757282104483    6.90670298755821
H         1.00087439718541   -1.54972369666357    5.86523999570663
C         1.12970755742811   -2.43150210067425    7.80224343103370
C         1.38566841723624   -2.20418300701227    9.15425560072212
H         1.33537323996944   -3.00894801644346    9.86990431222197
C         1.70612278414924   -0.93556290184090    9.59278453526382
H         1.90095636172589   -0.75383581781844   10.63879394292718
C         0.71126421719547   -4.75581741925851    8.09773867604572
H         1.66505771913445   -4.97648544104132    8.58618163383078
H         0.44262917196066   -5.58231609532152    7.44267750635312
H        -0.06758728403187   -4.62612139577393    8.85490732973327
N         1.94635446704090    4.84014563968543   12.79328144005065
N         5.24055186285749    2.49309392250844   12.40853886433118
N         4.66413682720868    5.10692800198359   10.99373017616041
N         2.58944536548553    3.55029377058386    9.49363042514962
N         2.70547488698672    2.91618176410914   10.65654511601973
N         2.43551311651091    1.67541463737842   10.49227312546546
O         0.81007861538189   -3.62519372046724    7.26061318305805
Ir        3.57875921285202    3.68344021748245   12.48934948669903

