64
CSD_code = UKOWAT | q = 1 | S = 0 | Stoichiometry = C28H28MnN4O3(1+) | MND = 6
Mn        4.40884205630279    8.03641812789500    1.92210783206060
O         4.13816506398175    8.39142196814673    0.18285158639714
O         6.16277965562999    7.67174257749736    1.95721299393350
O         4.04818165783679    5.88379816691527    1.22037240061799
H         4.91054235950648    5.52743376366976    0.96459217823546
N         2.47006168610695    8.35228184973868    2.18043582900961
N         4.20430102570613    7.27946004304918    3.69755114525730
N         4.92480585056112    9.90344325007445    2.53216245760720
N         7.47353414403531   16.30679038614202    4.09800161309702
C         3.29980964672882    9.11406885593965   -0.48275130771702
C         3.57753525182459    9.52953225676117   -1.80210569602152
H         4.53957885678114    9.27326056943364   -2.21916360164344
C         2.66074360946582   10.25725645742096   -2.51889480156367
H         2.90139571171939   10.57759771211845   -3.52096047190338
C         1.41688339421519   10.58349847899712   -1.97072040625954
H         0.70557517927411   11.14759264069644   -2.55196985300044
C         1.10490162277053   10.17617358667409   -0.69806252808233
H         0.14253149178047   10.41445860379388   -0.26937873584961
C         2.02618930880944    9.45370151534344    0.07931036297550
C         1.66788954280123    8.97265584086656    1.37246845027511
H         0.62279584917660    9.10123991510554    1.65999898181878
C         1.88342657227042    7.75349166467991    3.36807707199512
H         1.49247254191331    6.76391310547055    3.10051213819236
H         1.05700726016384    8.35998771520824    3.75516939425360
C         2.98347741295472    7.58791303176530    4.42725824650921
H         2.72599132562978    6.76314051854507    5.10605379501537
C         3.15235917843508    8.86796890946059    5.25059070413935
H         3.30149829164946    9.72183491673890    4.59318642807341
H         4.00777143745143    8.77991829729501    5.91582296420627
H         2.26409002690149    9.03597497400199    5.85337852487640
C         5.00394739356533    6.39278426779321    4.20385116038332
H         4.72007563583197    5.89699026493826    5.13362728076634
C         6.26385437646534    6.01874142419907    3.66016381587616
C         7.03179918164263    5.01634995186927    4.28150035992020
H         6.62725525894087    4.52371922056042    5.15350470149231
C         8.26047561855741    4.65577363238667    3.79216110817736
H         8.83118035717645    3.87667377056403    4.27110789891710
C         8.77927368426289    5.30746053534337    2.66793969172514
H         9.74731655431064    5.02148194298689    2.28598814524516
C         8.07580243078126    6.30947426886306    2.05076970578000
H         8.46991988258683    6.82218390675675    1.18623005511520
C         6.79611701299377    6.69223319165186    2.51321354071431
C         3.11213715910656    5.48994257623163    0.22525075246426
H         3.07040259832154    4.39914344257406    0.16285245564830
H         3.36761273013643    5.90326609089112   -0.75395731252826
H         2.13653539918946    5.86901407749946    0.52734416652571
C         4.46883229221262   11.00830813980639    1.92979324765787
H         3.69172169984900   10.87943979713331    1.18965090765914
C         4.93263888323985   12.27849877321813    2.20797319219565
H         4.52781135684250   13.11993912644444    1.66839959478442
C         5.93630912469353   12.46024880251798    3.15930497435698
C         6.40524228441804   11.30740633414752    3.79235819053263
H         7.16412757815399   11.37203312244528    4.55598325036171
C         5.88083723358894   10.07682925639886    3.45891232369332
H         6.23942265145289    9.18862838403922    3.96496574754467
C         6.46644893443357   13.78792143477609    3.48232652698368
C         7.82288292429396   13.97584369136116    3.74757699236812
H         8.51664778865914   13.15130022190796    3.69607359747765
C         8.26914407122968   15.25458372710940    4.04346317001611
H         9.31357787688425   15.44542257934845    4.24886584835917
C         6.18809136312040   16.13338632366320    3.85208694610253
H         5.57543339784279   17.02269907410285    3.91006367947200
C         5.63144605211172   14.90394979332698    3.53505259091387
H         4.57074220062535   14.81105915374664    3.36109399665519

