71
CSD_code = UKUGUE | q = 1 | S = 0 | Stoichiometry = C36H28IrN6(1+) | MND = 6
C         8.58616398984412    1.09625716518568   16.26803961839240
H         7.55588652838907    1.42903822923200   16.24531804739302
C         9.03280703552647    0.28566928844858   17.29159561533359
H         8.36400042345979   -0.00484202190446   18.08516889894727
C        10.35403230069538   -0.14722255775262   17.26586805535190
H        10.74107771183938   -0.77564020822962   18.05240809985598
C        11.15161701409819    0.22373215353456   16.20324049051031
H        12.17005323963729   -0.12171084032080   16.14383473565420
C        10.63615568394340    1.03525335887216   15.19001950521008
C        11.34862203865655    1.42026123227037   13.98288260946173
C        12.68192146328018    1.09838377057222   13.72361302791616
H        13.27093423233193    0.56730764766080   14.45551254177014
C        13.25871321086617    1.46664026781640   12.52604892333261
H        14.29012488468848    1.22061138000628   12.32561153530827
C        12.50995368326829    2.14853897148630   11.57956074232561
H        12.96007156745058    2.42898086869295   10.63889456841206
C        11.18673746968131    2.47691451834427   11.83281898720796
H        10.63033374770450    3.00877277171075   11.07524287262999
C        10.58743586422476    2.12790083889560   13.03152817071061
C         8.52266195616940    4.98170278557045   11.77502730700429
H         9.14469851737159    5.50355743124745   12.48711189227988
C         8.10330710001114    5.63022033638076   10.63042275853294
H         8.37377826214989    6.65988046037106   10.46370574997330
C         7.34202566877771    4.92435260192382    9.70831862800654
H         6.99479039159586    5.39640196286932    8.80263165322562
C         7.05411451990682    3.60011984750499    9.96738124917693
H         6.48369521683673    3.02299581688376    9.25903459850172
C         7.51249226516987    3.00041844333303   11.14142041411429
C         7.30238098572734    1.60311489083051   11.49326625262724
C         6.57464088010205    0.70704621113383   10.70812179163575
H         6.10936008746549    1.03192757664640    9.79023004876409
C         6.44390212366675   -0.60834682336811   11.10233259015321
H         5.88243660295051   -1.30149163479777   10.49527030901625
C         7.04355930615090   -1.03696523227555   12.27606792447803
H         6.95144999960812   -2.06867763096421   12.58109409272622
C         7.76380017565641   -0.14981759990416   13.06065764778419
H         8.22352703399621   -0.52349095972570   13.96471062050475
C         7.90558790354839    1.18486349366292   12.70009163514118
C         5.70551953441353    3.32794360412870   14.05668383642111
H         5.73891154053666    2.59846712524864   13.26006045249667
C         4.53130213815249    4.00024238726441   14.34847196283076
H         3.64206575546033    3.80894059551531   13.77089139971009
C         4.53060373572492    4.91296806776614   15.39011015647413
H         3.64092278914730    5.46614958067487   15.64681284034699
C         5.70279132302511    5.09215274708766   16.10738754809766
H         5.73706210411775    5.78096721105163   16.93695213498266
C         6.83309153291960    4.36793943499783   15.75400711006610
C         8.10023856944958    4.51505680359530   16.56931341726079
H         7.92433925484051    5.18300882719336   17.41427992122715
H         8.39665280731293    3.53148345957450   16.95268909256520
C         9.88779177965697    6.18145722178393   15.97037215380158
H         9.69045665305475    6.85810881115891   16.77342111824046
C        10.82151217828712    6.19315236371974   14.94202815378602
C        11.84960697235353    7.15849077719413   14.59868628227688
C        12.70443024990220    6.88675816338378   13.53057462698426
H        12.58399258648127    5.95985182076621   12.99080986013744
C        13.68695952550326    7.79327333348647   13.18363256310706
H        14.34732135420371    7.57886393530803   12.35726522881112
C        13.82679731038751    8.97494055839758   13.89455363989999
H        14.59509967959102    9.68222421884462   13.62243968002202
C        12.98017994472265    9.24895081787637   14.95679873738356
H        13.08910423551565   10.16872542759887   15.51109845438787
C        11.99432651874509    8.34752421016312   15.31090392195029
H        11.33715832562144    8.56856069965942   16.13868917131310
N         9.36133789958998    1.49039117674666   15.25520138680768
N         8.22915881039303    3.71077328844579   12.04670439219407
N         6.83853990708759    3.51080268740356   14.72956768579716
N         9.18757339553183    5.04316596833118   15.79100973947546
N         9.65741630953500    4.40045185790873   14.72547002564089
N        10.61957305761205    5.07167103832749   14.21556118494365
Ir        8.77931113467754    2.68428296755358   13.72774791118867

