61
CSD_code = UKULAP | q = 0 | S = 0 | Stoichiometry = C29H24ClCuN3OPS | MND = 4
Cu        0.50159299232489    2.53481570713534    9.77901613691776
Cl        0.05703303537020    4.42214051243362   10.87819058078404
S         3.07101003440360    6.33664375625816    7.04648098123643
P         2.61767124691208    2.05355155826861    9.22367963909971
O         1.78976684778919    3.79545754793360    7.62902586335326
N        -1.11652572268893    1.30230681141509    9.86816682364402
N        -0.74281140154444    3.30791504879832    8.21985921839858
N        -0.37522002715528    4.46729866818768    7.67274201821486
H        -1.03160089561867    5.24725400606908    7.65001529353461
C        -1.25966107479314    0.22293847362307   10.62051050117884
H        -0.35506485979747   -0.15765092475240   11.07705846238259
C        -2.48247496351344   -0.38835412632837   10.83331869846691
H        -2.55506608081133   -1.25957159044229   11.46413615570613
C        -3.61147155666908    0.15517758963970   10.22702634667955
H        -4.58297725134302   -0.29151085775659   10.37757174389790
C        -3.46953056921169    1.27467656705700    9.43316705151465
H        -4.31958162558426    1.72390849014617    8.94293516763504
C        -2.19908040740077    1.83196910423917    9.26291187715743
C        -1.96434797021699    3.02901635905947    8.49743771267598
H        -2.79897307267484    3.69310731136992    8.27108787260736
C         0.97493243066535    4.69955651046129    7.53827416556773
C         1.37330046707184    6.06998289373794    7.26975047810012
C         0.66676695062997    7.24566596430667    7.20621485112861
H        -0.39819053650308    7.32432662808243    7.33328934238209
C         1.49143886957344    8.35751313397292    6.97192924704318
H         1.12673080672151    9.36581320177540    6.89248049187646
C         2.80705598003249    8.01593367468034    6.86263504623927
H         3.63961800260001    8.66798949156669    6.68650332618968
C         3.90837768480025    3.32042346835717    9.43935939227817
C         3.54431415043366    4.54603440957751    9.98348884574210
H         2.51051745293754    4.72567079892512   10.24731065302310
C         4.50244183137501    5.52419117490488   10.18572495454878
H         4.21587546618304    6.47739746219251   10.60592258159758
C         5.82397446261375    5.28019862628180    9.85242048321014
H         6.57173338271501    6.04515239748976   10.00571900885111
C         6.19228900522186    4.04930689529832    9.33195081268350
H         7.22666074173494    3.85467342516217    9.08577277086986
C         5.24111008479845    3.06634627927538    9.13175135219960
H         5.53062188487282    2.10150332387748    8.73871258260431
C         3.31413582592129    0.82409266069825   10.39589641894679
C         2.88514401759670    0.95981556889791   11.71348890902731
H         2.16898273432426    1.74018822719757   11.94738934829604
C         3.36108213017404    0.11602399465568   12.69868183463689
H         3.02509067321526    0.22948206264188   13.71929978278450
C         4.26761490734456   -0.88023672393663   12.37167094091867
H         4.63936837003013   -1.54593819469398   13.13702254918469
C         4.69431968996395   -1.02445877704295   11.06195696668573
H         5.39990534958348   -1.80273452459038   10.80749229611257
C         4.22376366959320   -0.17571046400339   10.07513049165633
H         4.55712577018615   -0.29941448846834    9.05400356550780
C         2.95799339074260    1.25593515294147    7.63030246130750
C         3.67639356591781    1.84998975815649    6.60104456454978
H         4.10085857694289    2.83238140399974    6.74227895696219
C         3.82920628834324    1.18603320433195    5.39658398988253
H         4.39306088265885    1.64712719180776    4.59797809569732
C         3.26169102878805   -0.06341158754838    5.20738536462553
H         3.38690980156235   -0.57792955228151    4.26555015508210
C         2.52316409669407   -0.64879978705021    6.22395125403825
H         2.06814953609708   -1.61764163546782    6.07378883784662
C         2.36638302147336    0.01163013139445    7.42737421513124
H         1.78260087647802   -0.42949339387504    8.22648047047536

