50
CSD_code = UKUMEU | q = 0 | S = 0 | Stoichiometry = C21H26N2Ti | MND = 12
C         6.19482889133035    3.89975526918033    0.71075551727367
H         7.13013543285086    4.13075358834489    1.21444945491901
C         6.09933579484258    2.78820550245345   -0.07856192598922
H         6.95040107771944    2.14422851833347   -0.22908747259572
C         4.85210784808352    2.48538872851184   -0.67829699500750
H         4.75067163660427    1.59880632743320   -1.28602294833431
C         3.79865114588129    3.31803985941016   -0.47183792134635
H         2.83735191016124    3.10510848418373   -0.91320016375520
C         3.95359204439894    4.48954695319543    0.32698954288868
C         2.99583480636976    5.49009414447803    0.51581966605331
C         1.62130799435725    5.40111151656463   -0.10042453456855
H         1.29459514470521    4.36484409406875   -0.13965632168505
H         1.61459254235348    5.79531000168418   -1.11884636834092
H         0.89499487544901    5.95451256872060    0.49038314334221
C         2.69462825570798    7.80789350382697    1.12906821637592
H         2.07595035697382    7.82042135005230    0.22311015888360
H         3.41944152961214    8.62576763274546    1.03439052167957
C         1.81092307561898    8.10521448678707    2.34993303096892
H         1.01064142933620    7.36370611525750    2.41475774837460
H         2.42491989023887    8.02307673742194    3.25299463959526
C         1.19350660099250    9.49959964184809    2.27310220318753
H         1.98954249801503   10.24554086833485    2.21365456591836
H         0.59590928869034    9.58234163676653    1.36194414240811
C         0.31431576298792    9.79264957301710    3.48302762935468
H        -0.50054621447018    9.07472015935427    3.54649481459200
H        -0.11306388436652   10.79011191751990    3.41370134574955
H         0.89543622816556    9.73106511352768    4.40047283827536
C         2.91454027683857    5.17132395047295    3.68948293629937
H         1.88091880189832    5.47410529071239    3.58851334619126
C         3.86772766207118    5.75161453919316    4.55182633773244
H         3.68382077516450    6.57464163518403    5.23320248010204
C         5.01530995137496    4.93040271636870    4.53787216044958
H         5.87280277091845    5.02253609263769    5.19189985345152
C         4.79005492342472    3.88126914058197    3.63512187111014
H         5.44645565175105    3.03615884955023    3.46599624498012
C         3.47720097794716    4.01123189506342    3.13354967899269
H         2.96077938893848    3.28409865752289    2.52011305502370
C         5.89922157346244    7.84216214499165    1.43848909207435
H         5.62709974344537    8.33989786377528    0.51619559684836
C         5.46674105559822    8.17697348602259    2.74143561015555
H         4.82615841458025    9.00862767764590    3.00804128260009
C         6.20578857605259    7.39834620398235    3.65201977638220
H         6.20916966747667    7.52588026783709    4.72709144773051
C         7.05531594757679    6.55215858912929    2.91781472137158
H         7.81030559915007    5.89592738872542    3.33382911890372
C         6.87803844168571    6.83963395817297    1.55157796360964
H         7.47062639037806    6.45729987058245    0.73097272112206
N         5.17935086977992    4.74475488871902    0.93840059213943
N         3.41692295639974    6.55965550006491    1.23646189934272
Ti        4.79274362146892    5.95328510004040    2.38627768516642

