60
CSD_code = UKUMET | q = 0 | S = 0 | Stoichiometry = C20H24F6N3O4RhS2 | MND = 8
Rh        5.88453633199144    9.03066962435683    3.11703372918965
S         6.05930301321283   12.17572182906253    3.81404810350976
S         3.09024569688848    7.97979310492213    1.92674607360277
F         5.70222936251015   14.33262158438914    2.25344908501199
F         3.89794354757920   13.77223589179879    3.29150586552701
F         4.61521460820627   12.57347703184480    1.64269133032717
F         1.04918397748965    9.72005183380543    1.36513553366327
F         1.60052240088893    8.41895843519839   -0.26248444246595
F         2.89838248642655   10.04704960122903    0.30104257400879
O         6.26836278010948   12.90615970707070    5.02443974052904
O         7.20547642960467   11.91875510036622    2.97795106674988
O         2.15942170973091    7.06049611352264    2.50530349353203
O         4.08456875977730    7.46352362522666    1.02619495977885
N         6.02240967185977    9.97124082475501    1.19340132491645
N         5.24415213490103   10.83429715205772    3.92382943992014
N         3.80903205206737    8.99355987943770    2.89680821707369
C         6.66655946663441    9.16554437608855    0.14879485804565
C         8.10137796612192    8.78862720516954    0.52097244497045
C         8.20863741991059    7.54320930162969    1.41763190868765
C         7.54789647565109    7.70620772581885    2.75048903802558
C         6.47189337668552    6.91357832765447    3.24801495719450
C         6.12545786108818    7.42211685154587    4.55566153504517
C         7.04676256409136    8.46763886876997    4.88169467019859
C         7.91930191329567    8.66521237338728    3.75913772125998
C         5.94974216272805    5.65732232113977    2.62935909793328
C         5.09248660574441    6.82738478447998    5.45947080932677
C         7.15350803704695    9.20186847631154    6.17726414255562
C         9.14025953875755    9.53090573240181    3.76907056524433
C         4.99482806143327   13.30037849646674    2.70822763052832
C         2.07116701097824    9.10139571921191    0.77872005814758
C         3.94055356605578   10.77808941589848    4.42023174471868
C         3.41082957658715   11.62956672842092    5.37238089624366
C         2.09615570772726   11.45045732976915    5.78244852461490
C         1.32787146769626   10.42984137067844    5.25325589373774
C         1.84974215483923    9.57008347841273    4.29560789262649
C         3.15483940973094    9.74623080715688    3.86857490322401
H         5.09504057630494   10.25191226097784    0.88043206820480
H         6.57002171822399   10.81994605119161    1.37098438459234
H         6.05542189733100    8.27248114547863   -0.01056672635479
H         6.69125045423389    9.74292330763230   -0.78365335327482
H         8.65566356822078    8.58319488863400   -0.39629681207112
H         8.56763742986234    9.64327742735461    1.01432160790521
H         7.75994432245678    6.69636867194702    0.89750133143570
H         9.26922171627367    7.32490859086790    1.57519589965711
H         5.30877841483752    5.12743030736770    3.32764563649653
H         6.78303068169855    5.01000146241392    2.35584187633124
H         5.36687919287596    5.87297079957878    1.73639838121313
H         4.76877595913257    7.54674682694384    6.20792536622256
H         5.50776015079318    5.95721995279838    5.97147487410014
H         4.22028279440323    6.51284472689423    4.88874239344212
H         7.37132994144275   10.25473428750650    6.00462767330208
H         7.96410317500032    8.77290350049464    6.76952137386644
H         6.23236905634694    9.12881087105673    6.74945465820819
H         9.86320393235782    9.18351156149107    3.03486267382897
H         9.60129532793550    9.50198294643244    4.75476242154075
H         8.88516556918329   10.56685220435464    3.54899028586528
H         4.02337421620696   12.41771790616512    5.78086557173757
H         1.67915239520152   12.11458439169229    6.52351265555070
H         0.30943844919299   10.29381721843065    5.58287842713934
H         1.25510375444243    8.77058766283048    3.88417194385659

