60
CSD_code = UKUMAP | q = 0 | S = 0 | Stoichiometry = C20H24F6N3O4RhS2 | MND = 8
Rh        1.56318807606943    0.41841155451671   12.71468182116200
S         3.00435132754972   -1.41320178459584   10.52064493089141
S         0.42230487900256    3.29246144624315   12.03832201234953
F         1.19238200523883   -0.99300874725372    8.65515929309984
F         2.40710368477635   -2.73454967679989    8.28274327014409
F         3.18453221310451   -0.77223906703118    7.85457374827870
F        -0.27100489511334    2.83680780231036    9.48505979888611
F         0.09798789506332    4.92207250166268    9.89079919771882
F        -1.71754139509789    3.99290053022091   10.58348848728261
O         2.04826755427429   -2.29343711203182   11.14326981218531
O         4.38018772250498   -1.80956909914212   10.52576639674616
O        -0.63221208795174    2.65423349455521   12.77753555449124
O         0.96379235146039    4.50466022635221   12.57698556672806
N        -0.19394561174607   -0.62874254682839   11.86047343289466
N         2.67810323437682    0.04996052758020   11.00127708947097
N         1.44623343150909    2.16677396246343   11.61931185123613
C        -1.08183810382379   -0.00144862057854   10.88932848780417
C        -0.94937294840796   -1.15361722575004   13.01388762913382
C        -0.00836519443611   -1.76722196888469   14.06442959480859
C         1.09906264435082   -0.79219448188079   14.36362452132089
C         2.48758634374610   -0.96875695597509   14.09809469113441
C         3.11768486085995    0.32698201712973   14.24651376925376
C         2.12851760298293    1.25463961752657   14.71628126669122
C         0.87570283357173    0.57453642236052   14.78314301156168
C         3.23041424259634   -2.24442258640757   13.87996821392043
C         4.58527618870590    0.57637382244193   14.12069023789830
C         2.35327676688755    2.66340892264003   15.15071846192153
C        -0.35733195846251    1.12667274206567   15.42264309017160
C         2.44237237547096   -1.47256141089848    8.70732983368576
C        -0.41067496729503    3.80339116454921   10.39988004012674
C         3.26112936496021    1.20491636867619   10.48525976639824
C         4.39761938748268    1.26470814753555    9.70074479884425
C         4.84060918566391    2.50164479028525    9.24800956691798
C         4.16282092874308    3.65873849314944    9.58259424176116
C         3.02558841361263    3.61168762107926   10.38008612380182
C         2.57089776789289    2.38580794044296   10.83198293120097
H         0.30224178578917   -1.41004047726832   11.41439343961997
H        -1.54180981486864    0.87656086025386   11.34340182237471
H        -1.86759039145559   -0.69459743590810   10.56854909855593
H        -0.51060799305667    0.30929241523987   10.01843509806280
H        -1.50073266820612   -0.31518145849672   13.44685731424540
H        -1.67345579680184   -1.90917700129367   12.67571230589977
H        -0.57596906989220   -2.00493305403100   14.96739659032288
H         0.42048361979315   -2.68965458232470   13.67043267068532
H         2.55985631895079   -3.05567605130139   13.61467720799927
H         3.75857696524480   -2.50698305674484   14.79857635853176
H         3.96105154074995   -2.14659043865862   13.07957919876093
H         5.01645216939897   -0.05962054896714   13.35040094880152
H         5.07827608200978    0.35043447041327   15.06828647069170
H         4.78530956190609    1.61376361972278   13.86262909008099
H         3.38447964384738    2.96582127620491   14.99297832331677
H         2.12013529784752    2.75398494667986   16.21265913970980
H         1.70308806227285    3.34762951585105   14.60584708198596
H        -0.08330966800425    1.66822903759767   16.32728056888841
H        -1.04836132770190    0.33121617348711   15.68905408847787
H        -0.85440099805301    1.82847541213876   14.75477498370073
H         4.92937875812791    0.35897408602122    9.45591748666290
H         5.72594035687659    2.55131711802400    8.63344136764434
H         4.51761450737780    4.61459353055087    9.22933965858266
H         2.50834693777253    4.51534281108725   10.66027714446004

