80
CSD_code = UKUMOE | q = 0 | S = 0 | Stoichiometry = C31H46N2Ti | MND = 12
C        -0.07178750769100    2.92049646414531    5.50490830285981
H        -0.43974784612955    1.96216363335784    5.15140670593499
C        -0.78471576493713    3.63055058080633    6.42479902764311
H        -1.72366531377681    3.25744685747848    6.80151775189746
C        -0.27221755915205    4.87596822346361    6.87809991258660
H        -0.83407433410867    5.46106643024877    7.59013791066042
C         0.92825623842500    5.29824553434283    6.40796409575481
H         1.34798888832022    6.23627118235715    6.73675170883533
C         1.65188866471510    4.51575184978739    5.46044425974201
C         2.90478477385604    4.80869852868641    4.93670873505440
C         3.70825186020734    5.97800303978420    5.44779069706392
H         4.77559260060297    5.80827215308081    5.32946425891260
H         3.51309210032059    6.12446859047385    6.50860156188257
H         3.44333074601602    6.90171876443144    4.92968718047635
C         4.61761895541308    4.12007193939046    3.35966616927205
H         4.77994791241568    3.25299795017824    2.70813634862445
H         5.42122751876570    4.13008960013928    4.11427913035168
C         4.77658704249871    5.39106844124818    2.50525054014004
H         3.95228854957987    5.45881495201923    1.79561068966979
H         4.73597432721068    6.28105278184352    3.13105406652995
C         6.10385856473112    5.37950846450956    1.74930887247057
H         6.92770227536376    5.31700778937923    2.46498982991577
H         6.15482129567216    4.49498444114373    1.11018242101562
C         6.27318671943897    6.62933052870817    0.89371984296434
H         5.47353619346890    6.69992093672229    0.15957404983050
H         7.22286885862823    6.60589662228628    0.36452560912217
H         6.24771517147506    7.52341124097563    1.51296142870463
C         4.07863389369154    0.80964913355574    4.22311538386066
C         2.90118550616031    0.02160583418522    4.11002994776611
C         2.04229855995980    0.35627787155507    5.18938458255973
C         2.71517091345059    1.30548475255532    6.00699372874498
C         3.97355326388619    1.57947389345912    5.41774426916821
C         5.32441144433593    0.58537373394862    3.41011868177091
H         6.04851306339112    1.38697262062449    3.55007584351243
H         5.09557028495414    0.50795500184025    2.34628249059440
H         5.80137019041030   -0.35080151343210    3.71479920176047
C         2.78916525605054   -1.24896933001666    3.32160709524201
H         3.07497011097272   -2.08538052057129    3.96871842849751
H         3.45719649006595   -1.24869010651400    2.46649901263963
H         1.77471188923310   -1.42917253972427    2.98029857188842
C         0.81664747703015   -0.42970322308395    5.56054278019552
H         0.12008936300287   -0.51117180695896    4.72516999750229
H         0.29744278403076    0.01574627344725    6.40743250530104
H         1.10695843499171   -1.44536398860249    5.84414531504506
C         2.30749098635009    1.78441536125437    7.37044699717759
H         2.83691230011543    1.20977391603547    8.13603977616126
H         1.23849399584001    1.66405734387113    7.53883667097700
H         2.55675060857579    2.83707031776489    7.51138940860801
C         5.06665982653990    2.32124009112360    6.13295716760793
H         4.75272887262447    3.32522998812681    6.42261420625228
H         5.96844510473577    2.39074521661126    5.52778737423814
H         5.32345434374712    1.78218722926556    7.04872515665934
C         2.45873116799034    2.14350903036690    1.19289081481814
C         1.95119888079626    0.83939304952241    1.06661241160014
C         0.72266606464075    0.76465122574669    1.74621065737867
C         0.45497560556489    2.02550175177379    2.32529595047665
C         1.52731011665437    2.92526131426075    1.95830003067851
C         3.61835173782224    2.63659880915314    0.37555970289256
H         4.55013225707704    2.12149575840485    0.62140760980505
H         3.77085028360332    3.70461538234728    0.49417744263718
H         3.41738647025209    2.44253415051937   -0.68090691965478
C         2.56424667377937   -0.20461395263584    0.18269531323956
H         2.15227801317828   -1.19205802669593    0.37439678238098
H         3.64669742525606   -0.25009741542185    0.30451611881435
H         2.36688853743942    0.03957737415240   -0.86445784214980
C        -0.26490124044502   -0.36239790282008    1.69683431526843
H        -0.69741854755507   -0.57098539223889    2.67630109343372
H         0.18552906654345   -1.27660907308534    1.31642739561298
H        -1.08871436388201   -0.09805785571830    1.02887727764636
C        -0.94715520408686    2.49381241692688    2.61916672583877
H        -1.45663915014340    2.68444317531314    1.66841998847588
H        -0.96118249162901    3.41904956572153    3.19300434855056
H        -1.52864257852599    1.73881618819364    3.14718049177290
C         1.25347352024665    4.40159889095615    1.76467441052943
H         0.37862303247046    4.51789004007083    1.11823543638945
H         2.08760319840610    4.89482466550558    1.27233721508183
H         1.05239828516751    4.91746067325540    2.70631872940124
N         1.09855992562116    3.32752780352648    4.97611456426356
N         3.32705207179220    3.93664088627682    3.98398813600037
Ti        2.31066534646615    2.33063439532154    3.91272609717329

