47
CSD_code = UKUWON | q = 0 | S = 0 | Stoichiometry = C16H22N4O4Zn | MND = 4
Zn       -0.00033253937923    0.25013859068698   -0.00014303095524
O        -0.15306580830103   -1.10051013660956   -1.49168575709662
O         1.60565160632722    0.15614564342683   -1.27249122731657
N        -1.05168667170463    1.81850153234414   -1.17835991871519
C         0.97495641621052   -0.73897673606988   -1.88545315445427
C        -1.34622722192267    1.36132320255737   -2.50299147525311
N        -3.13470989125672   -0.00143153218019   -1.61822278874838
C        -0.85468877719249    1.33745457903555   -4.85701137692094
H        -0.26483884710240    1.69214144950035   -5.68821754426043
C        -2.35915413101295    0.40767287434865   -2.68612812272479
C        -0.60155495212959    1.80753571002399   -3.57788205535435
H         0.19414804943147    2.52049299018381   -3.40977650547513
C         1.56750186015339   -1.36062380712971   -3.12462351654098
H         1.41503683200031   -2.43549047513314   -3.10243099626953
H         2.62359229058880   -1.12116292052299   -3.19653091229082
H         1.03966799171282   -0.95547589653634   -3.98600454030256
C        -1.86819473412859    0.41697244504758   -5.05352263310769
H        -2.07833451216693    0.04619076695730   -6.04562388299323
C        -2.60920620934285   -0.04199186923582   -3.98071764083293
H        -3.38995638680621   -0.77264714934919   -4.13550498357060
H        -2.65664225783531   -0.05150995729124   -0.72771643126148
H        -3.66493519121049   -0.83984182741065   -1.80405213685934
H        -1.91549632170255    1.99158983174658   -0.67005565910232
H        -0.51034355598891    2.67605551100289   -1.23084470821544
O         0.15239160170350   -1.10079159229103    1.49119993685819
O        -1.60597327002134    0.15658758311710    1.27290880091159
N         1.05132901921455    1.81866113212426    1.17856027232076
C        -0.97522325407765   -0.73872854125768    1.88559485449115
C         1.34610564154357    1.36136320418979    2.50304026690462
N         3.13456347658175   -0.00108888184976    1.61774402880555
C         0.85526050666322    1.33733088443313    4.85722456443621
H         0.26556786133501    1.69187995738317    5.68859677843154
C         2.35921617580111    0.40782631089934    2.68590874285297
C         0.60166122120503    1.80739395027692    3.57817598821011
H        -0.19441288777701    2.51996865359393    3.41028893913920
C        -1.56777579442817   -1.36035752417032    3.12479431005623
H        -1.41529837784077   -2.43527308276198    3.10258121711003
H        -2.62398917766448   -1.12069835294784    3.19685845959637
H        -1.03982521308840   -0.95517166869610    3.98607748294927
C         1.86896449409145    0.41699998845796    5.05343976334245
H         2.07967452677685    0.04649271218351    6.04551833229766
C         2.60972294209436   -0.04182022662223    3.98039462397266
H         3.39072296767577   -0.77223477925927    4.13493128575397
H         2.65611896042258   -0.05141440436087    0.72744763154685
H         3.66508671756738   -0.83934262300815    1.80341422440969
H         1.91503505413372    1.99164235499284    0.67008472024818
H         0.50988977078560    2.67612212618638    1.23120577402368

