55
CSD_code = UKUXOP | q = 0 | S = 0 | Stoichiometry = C23H19N4O8V | MND = 6
V        -2.06746463547742   -1.59854722475927   10.07050733477237
N        -0.13047261823844   -1.27732222636754   10.34213422482755
N         0.44364904602681   -1.95249051839466   11.34680614378546
N         0.23726612045582   -9.19013524693283   16.22676297120937
N        -3.45697374953247   -3.86681616670165    9.78392194291173
O        -1.80026526028578   -1.06157385044955    8.48458316912540
O        -1.64601404629755   -2.75829662417203   11.57111282238074
O        -0.38424121719559   -4.89181540693508   12.77750991442718
O        -0.17236668415858  -10.26472505375090   15.83581860798506
O         0.76441068554733   -9.00689122472442   17.30525818288521
O        -1.32571896068367   -3.66718090404758    9.16452878149237
O        -3.51651978409579   -2.53744193253005    9.93724255340345
O        -2.44799652529574   -0.33565483183086   10.82639783836668
C         0.06334555535676    0.35391194687446    8.59591952549163
C        -1.16682127798430   -0.03411856740568    8.00241627936787
C        -1.66344187309605    0.67729862110446    6.88925440603085
C        -0.93249125552856    1.73778242188920    6.39254868037908
H        -1.31757722573303    2.29146867176316    5.54855744853315
C         0.28802382230302    2.10708899817403    6.95592453233124
H         0.83810492432313    2.93692052442127    6.54014373428358
C         0.78372651730082    1.42195998863576    8.03958004283867
H         1.72321064132340    1.70839620758755    8.48807934830209
C         0.56000129991894   -0.38941956587348    9.71027652684946
H         1.58318234769904   -0.21200368255034   10.04486074604671
C        -0.43940231110364   -2.70505431260120   11.93888112280273
C         0.01074320371093   -3.57063640641146   13.10035875469477
H         1.09734735676486   -3.49187797267931   13.21240198358455
H        -0.49212522463812   -3.23001237225234   14.01524539061533
C        -0.19752396941364   -5.87941339165916   13.67199291142887
C        -0.66008102540848   -7.14449865269089   13.27903430590860
H        -1.12515932094487   -7.23831296897357   12.31075595030176
C        -0.51849549914273   -8.22736113745372   14.11069398076158
H        -0.86947136572673   -9.20605815609254   13.82219603650868
C         0.08826863778450   -8.06264527307880   15.35496308639686
C         0.55009737690280   -6.81482291477231   15.75555907484439
H         1.01689428380731   -6.71464828326461   16.72359102336107
C         0.41073001863191   -5.72591647012211   14.92025616940210
H         0.77735280374153   -4.76472742963876   15.24172922281570
C        -2.98075766304049    0.25223299454832    6.31755229471903
H        -2.87565101538178   -0.70686853190793    5.80883536617553
H        -3.35576063277932    0.98704620655145    5.61057217396410
H        -3.70196900700333    0.11987470867050    7.12619513548471
C        -2.17211936532234   -5.88288370616298    9.41199897530636
C        -3.26800338085688   -6.71606567092582    9.19646303887129
H        -4.24342435767988   -6.29918160642751    8.99345966712937
C        -3.10126180252564   -8.08925024879441    9.20493648971173
H        -3.95079155274060   -8.73273814993240    9.03227944369503
C        -1.85021842890451   -8.64124570817470    9.43239034419013
H        -1.72904374318528   -9.71385935431350    9.44441021806395
C        -0.75582547347557   -7.81653841462726    9.63753693756328
H         0.22017664184495   -8.24453972470671    9.80996661362242
C        -0.91340821510579   -6.44284751172122    9.62196365743898
H        -0.07456215129588   -5.78274453200381    9.78341728445911
C        -2.27019336029167   -4.40584208400041    9.44015390222358
H        -4.22841730388021   -4.38705727742236   10.19306368593320

