57
CSD_code = UKUXII | q = 0 | S = 0 | Stoichiometry = C24H26Br2N2O2Zn | MND = 4
Zn        8.36679203576393    4.86539428465641    3.34276128073535
Br        1.11846133480896    5.02772903133025    2.49719316602919
O         7.07179344149501    5.78271368223976    2.42901888433967
N         7.15596947020186    3.91374792893967    4.59283654363349
C         5.17507509300852    4.71748230726972    3.44180316172822
C         5.80532052959181    5.58554326498822    2.49675377072316
C         4.96158392559249    6.26878087367042    1.57847860357932
H         5.44010281945122    6.92738305815935    0.87002128071925
C         3.60477268336221    6.10863475297781    1.57408976841406
H         2.98835073888065    6.63576381435521    0.86155397107361
C         3.01235557901108    5.25186904379663    2.50643343461154
C         3.77354210703526    4.57832371522464    3.42160414541979
H         3.30193137493060    3.92366356602752    4.14066544362439
C         5.88044359700201    3.99241707049785    4.44346636070340
H         5.24430441537139    3.44934826259414    5.15241415926908
C         7.67409342543978    3.16728870037037    5.71225425920566
H         6.85237139888886    2.62460257881501    6.20261501818629
C         8.75980973013919    2.17069244186048    5.28947486630481
H         8.33963747455690    1.22756363358261    4.94210104114646
H         9.35152539558522    2.61094361278896    4.48437459687982
C         9.62127451199071    2.02748106746275    6.53793048029685
H         9.10624097681743    1.41164948737558    7.27740373411555
H        10.58997723467285    1.57745757414669    6.32753294527648
C         9.73710356108524    3.46752458312418    7.03249630678688
H        10.51332322762096    3.98512987458098    6.46797481734132
H         9.99185770793280    3.52335134433021    8.08944452252027
C         8.36812867336991    4.09568316919952    6.73672822003883
H         8.47975552609570    5.09380798358552    6.31483532988149
H         7.76191429075117    4.17480788814021    7.63858194073031
Br       15.61503921151777    5.02761114114762    4.18856363097045
O         9.66170310138841    5.78249810032552    4.25690315031542
N         9.57761758940681    3.91375573643282    2.09268490826414
C        11.55843919007715    4.71759856172049    3.24385575845374
C        10.92819085493756    5.58548282387564    4.18907503498591
C        11.77188127024928    6.26820091421816    5.10777646910471
H        11.29338612444760    6.92666026783076    5.81639462725733
C        13.12869204892597    6.10801094530622    5.11215440743264
H        13.74513844920229    6.63516226735344    5.82465938802674
C        13.72114841729107    5.25174179089072    4.17938238785788
C        12.95998521977770    4.57853737252634    3.26394893694985
H        13.43158558123991    3.92394546739128    2.54481637011651
C        10.85310939310700    3.99240215227827    2.24226355071372
H        11.48933800765136    3.44977315458764    1.53305112743236
C         9.05969577204343    3.16723883636656    0.97318004423841
H         9.88166879768210    2.62507220066359    0.48264195917512
C         7.97490685856379    2.16988533435408    1.39652576406431
H         8.39591645953323    1.22673737650294    1.74293984077353
H         7.38382926538470    2.60942023176247    2.20248584776653
C         7.11230542396771    2.02762770296507    0.14867431624162
H         7.62629051185812    1.41157846032304   -0.59136853974461
H         6.14381284002857    1.57766852696682    0.36018482881978
C         6.99521644311029    3.46751620353698   -0.34624707263579
H         6.21966942993977    3.98498851687329    0.21956722623728
H         6.73965483941891    3.52345779656262   -1.40325044017724
C         8.36444519228520    4.09523179296981   -0.05096277120686
H         8.25304896903100    5.09350462462720    0.37071120678769
H         8.96987245747828    4.17431310355037   -0.95335401153481

