84
CSD_code = UKUYAA | q = 0 | S = 0 | Stoichiometry = C42H40CuP | MND = 2
Cu        1.57573890576545    2.35993901232291    2.87820705524370
P        -0.15454889182496    1.03657280989753    3.15107793280270
C         2.91797088810011    3.77701970754420    2.94126971681312
C         2.47105130838887    5.11037256303655    2.85981695175130
C         3.33689755253954    6.19045607412544    2.92223134342905
H         2.94796883873290    7.19865135151811    2.85313215770268
C         4.69568194249942    5.97529040977383    3.07627794883767
H         5.37662093013011    6.81456188563842    3.12585525795207
C         5.17764010197152    4.68234370770700    3.17381349920114
H         6.23737798303468    4.50460987215355    3.30722204306004
C         4.30281720376729    3.60686166826636    3.10901717322820
C         1.00124192160755    5.28775910904911    2.72804149352343
C         0.20845194378524    5.37362849465385    3.87313122536154
C        -1.17298797546186    5.39364994291488    3.74868047739015
H        -1.78397704837585    5.44460817167487    4.64023922572105
C        -1.78514852732530    5.33693740543454    2.50695921829921
C        -0.98326296527347    5.27968498705799    1.37410753407445
H        -1.45009623735548    5.25099657934598    0.39745631106605
C         0.39926189664719    5.25173928913948    1.46861090567713
C         0.85436812991101    5.43050082482167    5.22487955296844
H         0.10712295078616    5.39259404137446    6.01424518761310
H         1.43060341721424    6.34920733046706    5.32944912268008
H         1.54678186694834    4.59859596311330    5.34679594386797
C        -3.27990080103172    5.33412662555208    2.37534370752234
H        -3.61442809668620    4.45217229852738    1.82871292059689
H        -3.61587402146111    6.21360901658309    1.82626631037438
H        -3.75330415609280    5.33480963728672    3.35425017678449
C         1.25146751930069    5.15177678617933    0.23881994762996
H         0.64445326973334    5.19328917645648   -0.66297597744215
H         1.80754590302004    4.21362363171931    0.24713610500600
H         1.97980560829433    5.96066868654294    0.21378194694554
C         4.79995687002721    2.21137480135100    3.21788242813411
C         5.28781078567922    1.55192050559920    2.08819625327965
C         5.67918880616116    0.22661167850050    2.18912330591289
H         6.05500589944265   -0.28526797000206    1.31302806046602
C         5.59392287273898   -0.46287300366375    3.39136976024887
C         5.11094030615936    0.20548193825141    4.50536644226673
H         5.03891190912080   -0.31693028902114    5.45061711937690
C         4.71429961268143    1.53308970101738    4.43382207872316
C         5.36866118905769    2.27904453167234    0.77918090198765
H         4.40448995583127    2.72558482995565    0.53879120763939
H         5.65986161021810    1.60581232974669   -0.02394638846310
H         6.09591362428731    3.08790778597354    0.83829790223933
C         6.01164047562692   -1.90267865030525    3.46698572713785
H         5.93731335737062   -2.27703797836717    4.48613812133622
H         7.04176719679982   -2.01868540700680    3.13060759548410
H         5.38171027851945   -2.51728509775109    2.82206565844203
C         4.18303628608866    2.23616884164808    5.64749824188851
H         4.23894389530514    1.59645210306752    6.52563810032990
H         3.14318766365560    2.52230418258637    5.48408615558763
H         4.74615109339741    3.14913316830958    5.83554455617795
C         0.22205543946690   -0.54711947142528    3.96432491657754
C         1.54544966204818   -0.97738551235304    3.95221263593385
H         2.30106707739831   -0.37078773899418    3.46711194579340
C         1.89128527152306   -2.16580145754351    4.56991671297733
H         2.91945528146629   -2.49441279525731    4.56048178006208
C         0.91925015486901   -2.92330186530293    5.20233870198006
H         1.18753848618515   -3.85045288327250    5.68698712497592
C        -0.39895534530572   -2.49211809231421    5.22273227677373
H        -1.15263358721093   -3.08335389650300    5.72225454914458
C        -0.75166650950512   -1.30479050763056    4.60902168272822
H        -1.77621531979051   -0.95791021971726    4.62948312808658
C        -1.35192916976181    1.78102999322927    4.30446059407815
C        -0.82853070457247    2.20773813999385    5.52272448895608
H         0.22474265101861    2.05741876696325    5.72524498339477
C        -1.64373806854419    2.81848115476048    6.45428141241057
H        -1.23448756752705    3.14593402088106    7.39870390021338
C        -2.98590178988193    3.01922673103115    6.17000977278319
H        -3.62397556630633    3.50543144027329    6.89340788536949
C        -3.50756794821383    2.60229031073742    4.95740381809626
H        -4.55312106580540    2.76030999748774    4.73579475660690
C        -2.69621758158265    1.98363137915239    4.02212885240183
H        -3.10932799251978    1.66213680940448    3.07665790837100
C        -1.18190520515055    0.60698284471450    1.71306921417828
C        -1.52982403861789   -0.68863059128555    1.35342355043383
H        -1.20744783303419   -1.52535395591290    1.95715039484553
C        -2.29112086802786   -0.90124516267085    0.21651227758975
H        -2.56607438551714   -1.90802170017207   -0.06228916200138
C        -2.69845356466994    0.16826673517429   -0.56335502324484
H        -3.29298612574872   -0.00566370718357   -1.44794683997399
C        -2.33597550736604    1.46116246890812   -0.21575141355080
H        -2.64470410163026    2.29411637849447   -0.83018456046504
C        -1.57228584094703    1.68170863944962    0.91365745694480
H        -1.27125338844853    2.68499868739051    1.19338463174111

