83
CSD_code = UKUYEE | q = 0 | S = 0 | Stoichiometry = C35H45CuN2 | MND = 2
Cu        2.28854023144445   21.81044802807379    1.22952379253750
N         2.90820567028538   22.65226280300529   -1.53736524501561
N         3.01506397720585   24.32243950655430   -0.16753568066927
C         1.86859043590479   20.59730468543420    2.71181129717222
C         1.69086486980346   19.21099448211244    2.53403574936557
C         1.40640980992930   18.34896103029219    3.58404952248958
H         1.28028946872923   17.29106563425580    3.38766907935947
C         1.28586317687467   18.83758905163918    4.87179185537600
H         1.06537044130303   18.16833049461658    5.69311675374639
C         1.45035149911458   20.19178914004505    5.09739433610874
H         1.36032426402807   20.59310406224622    6.09959625013599
C         1.73483832816382   21.04556067835857    4.04093872783510
C         1.81452956941598   18.64899627704793    1.16367523983008
C         0.68738765944050   18.53884811023147    0.34726513008138
C         0.81586848902011   18.00534433422332   -0.92519022076336
H        -0.06117921088586   17.91041272543623   -1.55255142609428
C         2.04540853393810   17.57880754529528   -1.40922011124141
C         3.15859270470657   17.70826844888842   -0.59330974597079
H         4.12475952270600   17.38052490324955   -0.95515479289728
C         3.05801106193677   18.23500269208812    0.68648040033045
C        -0.64474039120305   19.00280002154489    0.85463045539555
H        -1.41466764887204   18.89011551948862    0.09445298691233
H        -0.58522407193864   20.05020439098402    1.14963566117446
H        -0.93402038978029   18.43376699801797    1.73706356578330
C         2.15536489220400   16.99471993236790   -2.78863850704112
H         3.14746036418336   16.58225131751851   -2.95860616647637
H         1.96481276923742   17.75401555042943   -3.54910683894551
H         1.42242346607231   16.20095281491705   -2.92634793193704
C         4.27028278059421   18.36678955180020    1.55836760246411
H         5.16351816921235   18.02054727525533    1.04303601751901
H         4.14386737195167   17.78979439620999    2.47339210206414
H         4.40739392788042   19.40838032621064    1.84832011127113
C         1.90417126245479   22.49567200919888    4.31919730542366
C         3.17112095723215   23.01518846651571    4.58898276994545
C         3.31334019250206   24.37086878564047    4.84333937728346
H         4.29640064540756   24.76964035521977    5.05870358988934
C         2.21969333204133   25.22488628923261    4.83771476654698
C         0.96806969738346   24.69635685424609    4.55834933345535
H         0.10578607241684   25.35049186586125    4.54880294151034
C         0.79733154856406   23.34481941214425    4.29905661157317
C         4.36248923190391   22.10532581391878    4.59029880183362
H         5.27330061261330   22.65214984872453    4.82434504432343
H         4.47105212508904   21.63522696657493    3.61282514041570
H         4.23023657884054   21.30804984968485    5.32014042182262
C         2.38584573217814   26.68327497199784    5.15557910462283
H         2.36229271338068   26.83447830910811    6.23553686511801
H         1.58290673162833   27.27422805520897    4.71881174176914
H         3.33991319792860   27.05950787687325    4.78972938845016
C        -0.56037382066213   22.78848968480477    3.99158010960272
H        -1.30726909332282   23.57830093016518    3.95001859375325
H        -0.85486988864212   22.06499892452565    4.75065745237129
H        -0.54001716464742   22.26539933686897    3.03594520364611
C         2.76658670257099   22.99629812301429   -0.23852011096336
C         3.30948656600536   24.81443191682521   -1.41905771828838
C         3.66529705151037   26.22633608150837   -1.72434060943397
H         3.55504808936381   26.41101536794556   -2.78994267095763
H         4.70074277370915   26.43289786276089   -1.45351077255059
H         3.02333600625576   26.92263722944255   -1.19211287676020
C         3.24113790805835   23.75925203658364   -2.28461715309086
C         3.49866041073983   23.75821529442342   -3.74964311117679
H         3.45351981776424   24.77495419250032   -4.13168540006496
H         2.76113209988113   23.16364500810471   -4.28181474794033
H         4.48920130957143   23.36049763289969   -3.97013286357416
C         2.92226296178930   25.03330118697131    1.09886170450310
H         2.81232108693309   24.24225371093662    1.85268350158346
C         1.66559826981046   25.89843562963075    1.15914054357969
H         0.79096136685777   25.29977107365391    0.91575931396934
H         1.71515678735900   26.74228043722281    0.47540690900607
H         1.54927615790561   26.27693815621541    2.16990938262760
C         4.18697874214546   25.82021425631362    1.42731181766537
H         5.06996599143362   25.22167056907665    1.21514811809053
H         4.18144239470177   26.05313381597776    2.48808546776422
H         4.24584455267358   26.75214873083186    0.87283790782895
C         2.68021534804552   21.28371121870824   -1.97666412349438
H         2.60383912526990   20.70423228364976   -1.04701007345781
C         1.34413629232547   21.15660937946328   -2.70529526639219
H         0.54798747180901   21.58111617928137   -2.09823686183112
H         1.12664420717067   20.10449125747392   -2.86154553751526
H         1.35445695903187   21.65742149122007   -3.67033922812667
C         3.84445314918226   20.72040922844809   -2.78575459837104
H         4.79129971120360   20.99912571422022   -2.32895461612967
H         3.83123863738948   21.06259982214750   -3.81649273585022
H         3.77388964463056   19.63660777819267   -2.78360812388693

