54
CSD_code = UKUYII | q = 0 | S = 0 | Stoichiometry = C20H31CuN2 | MND = 2
Cu        4.58552083064895    4.98923990748549   12.90153494155548
C         4.48596884239886    3.35505502383415   14.02192629276715
C         5.14686080783743    2.15919258602920   13.66233176454646
C         5.09594399322129    1.02043649556310   14.44773946826269
H         5.61819043476746    0.12536557163910   14.13071149093262
C         4.38699909825174    0.99922738858733   15.64045645591657
C         3.73010069644816    2.15452393435094   16.01907726277605
H         3.16805952279679    2.16947203888831   16.94560123943307
C         3.77584690240084    3.30105554303708   15.23462881339948
C         5.94787210934920    2.10829346701659   12.38472733832026
H         6.31943103050532    1.10296661834966   12.19557979178424
H         6.80384664933586    2.78283623088988   12.44110235438429
H         5.34110854657985    2.41607678125593   11.53266199682290
C         4.33024545429841   -0.24799860344799   16.47449786848708
H         3.91775127795661   -0.03832917496814   17.45920352381475
H         5.32467492441455   -0.67608767141279   16.59608071902603
H         3.70139751555919   -0.99858326712672   15.99313101169808
C         3.03417126361811    4.50896907808273   15.75175185811174
H         2.01972617886439    4.24119526754410   16.04647723375746
H         2.98052195199125    5.29269562056901   14.99639964455954
H         3.53942064468188    4.91639294946824   16.62930614819144
N         3.91758534382168    6.99213450579692   10.77944386139877
C         2.81535861810513    6.19907609359397   10.25844370658369
H         2.38754206415331    6.75979671824299    9.42195030909325
C         3.32406317692418    4.85574786217195    9.73986554227995
H         4.10820414608692    5.00297556793717    8.99996750557936
H         2.50863956845131    4.30421394290256    9.28041347938826
H         3.72455457343759    4.26732920599466   10.56248479704641
C         1.73907255343429    6.01379729561163   11.32619788170450
H         1.40933618836046    6.97766057319579   11.70862264112327
H         2.12916860585312    5.42379375420268   12.15289310713618
H         0.88399545007788    5.49570190507559   10.90135854220238
C         4.70048199167480    6.62786624898820   11.82041635386861
N         5.58905614607257    7.63644404400181   11.97058170325552
C         6.62946947819169    7.67635970539273   12.98633997011330
H         7.18495617320226    8.60687166596122   12.83525327926336
C         7.58925555047300    6.50058241066036   12.81727906271474
H         7.99893282159040    6.48251519806669   11.80930729790584
H         7.06745045458129    5.56357863799444   13.00050059887885
H         8.40796499574443    6.58855660581250   13.52600513207365
C         6.01007948724702    7.69554545608131   14.38248573331277
H         5.30981576080455    8.52284640047169   14.47945333659450
H         6.79012266446184    7.80918437698146   15.12993916179257
H         5.48032480064672    6.76412925616083   14.56996879359445
C         5.36706208859521    8.62381296370841   11.03578830529131
C         6.18147866960652    9.86442265786589   10.94015728482375
H         5.80989146281265   10.48766580930122   10.13197888433083
H         7.22677993337738    9.63128856148099   10.73645546043060
H         6.12930217590653   10.43965231188479   11.86464946957531
C         4.30856477901307    8.21561074316463   10.28111224016100
C         3.64060083570775    8.88852386405791    9.13537593451418
H         4.12832634536445    9.83676000132829    8.92976038252632
H         2.59161961685287    9.08665369292334    9.35594471246424
H         3.69488480345081    8.27630617732914    8.23507831040114

