53
CSD_code = UKUYAC | q = 0 | S = 0 | Stoichiometry = C25H20N3O4V | MND = 6
V         7.14106922587081   13.50837380886485   11.03734168056015
N         6.71664210046783   11.85640144192808   12.07727981773584
N         7.72997314536368   11.00989900390643   12.24918220841209
N         6.85826986018091   12.01291757525100    9.06188323617346
O         5.45695347118723   13.63355563909467   10.82557655516879
O         8.73913863436074   12.48977576993952   10.89491170367982
O         7.71698456135100   14.44292882443705    9.71273251397559
O         7.43694332922264   14.26801793571227   12.32767816408278
C         4.46697607621478   12.49089956642186   12.61908557887257
C         4.42997982292381   13.48880059992175   11.60792531122851
C         3.26458119387665   14.25644628609620   11.46585375886462
H         3.24130939633914   15.01327340212232   10.69497098842336
C         2.18989210215873   14.05851967021736   12.30236381243113
H         1.30613992713427   14.66900108384801   12.18498838047570
C         2.21331432086626   13.08186175977093   13.30382925110638
C         3.34621457445062   12.30756240795576   13.44105315552264
H         3.38882817787020   11.54580305858789   14.20679844628488
C         1.02233819428871   12.89666678705343   14.19477641616990
H         0.14699191143510   12.62265543735586   13.60722739275678
H         0.79399093118876   13.82375749681762   14.71815589373465
H         1.20439689392691   12.11842149735785   14.93061359664737
C         5.62659481538163   11.66700042141182   12.74558256620709
H         5.59627094167678   10.82449455231163   13.43844635321051
C         8.79534892437993   11.43609381998631   11.60609415606940
C        10.04727497730081   10.67125446561248   11.70733854924484
C        10.12420745232788    9.53097029680483   12.50466088543265
H         9.24423070751039    9.22473635096582   13.04815024802705
C        11.30556877733838    8.81419653755756   12.59922317319548
C        12.41580259539904    9.25308615261777   11.88160153062834
H        13.34243763130140    8.70095976876736   11.95111608642162
C        12.34695495490272   10.38463644131524   11.08802925165657
H        13.21883152237705   10.71187636102388   10.54083614270315
C        11.16661317387702   11.09830789449634   10.99692725306735
H        11.09345991609388   11.98745959045317   10.38780234704628
C        11.40214179397212    7.58786860244984   13.45540371006079
H        10.46788725168192    7.40670904079958   13.97929465530459
H        12.19871128000490    7.69992982524434   14.18933682866472
H        11.63428392139570    6.71645294091502   12.84421766147034
C         7.98377833457433   14.02415174131366    8.51839601926002
C         8.68226900475807   14.77652339059641    7.57962987398441
H         9.01621018580871   15.76645697099994    7.85485393095076
C         8.95046182410888   14.26493604347119    6.30797604254620
H         9.49650666312074   14.87918065167359    5.60674785024662
C         8.54504354441174   13.00769281628923    5.93742694555355
H         8.76599690152977   12.61991227063669    4.95418906255698
C         7.83348656343903   12.20056238032111    6.84686586922717
C         7.38667022264325   10.89252467645583    6.56663795784278
H         7.58970958162253   10.45934421829394    5.59709460369895
C         6.70662846980906   10.19313903947535    7.52822319458252
H         6.35520735094432    9.18898348468757    7.34731341697380
C         6.45944429282200   10.80145844372208    8.77016270169049
H         5.91318255551414   10.27214910246977    9.54303837818846
C         7.54185601729443   12.71171265420574    8.13805489198479

