35
CSD_code = ULAKIC | q = 0 | S = 0 | Stoichiometry = C14H14ClIN2O2Zn | MND = 5
Zn        2.69783351387145   12.70888547819881    6.41871815996180
Cl        4.84769319777133    5.93587350021972    8.02176152453663
I         0.44577422844727   13.65019081056084    6.06182121559324
O         2.76080320550994   11.37647503958459    7.79117810081290
O         3.27118960176734   14.06114516387789    8.23253376613734
N         3.63698513783045   11.43933622435889    5.14398256715744
N         3.95677187752561   14.04713125301954    5.25191984265936
C         3.87687663295478    9.58533482902940    6.65865572031823
C         3.22475706925298   10.18577418986073    7.78204746374674
C         3.11228025563629    9.39353808862641    8.95870435898974
H         2.61217966603609    9.83856651193513    9.80602354662495
C         3.59216174419545    8.11698790967900    9.02823414941919
H         3.48440220524989    7.53612319483699    9.93149251028767
C         4.23245320001585    7.55370802535665    7.91773316581458
C         4.37374189181537    8.27088348315597    6.76202741903913
H         4.86545871235847    7.82881137293170    5.90758304588351
C         4.08424434472480   10.27047158765384    5.43321196974166
H         4.68608546758209    9.73808876931501    4.68549615013744
C         3.98667414391817   12.04915533593063    3.89408554098282
H         3.11312694309098   12.01476363219557    3.22598044500541
H         4.81498326427060   11.52717651113540    3.39215563165886
C         4.33618526869834   13.49850637672270    4.10458002318390
C         4.99981697727451   14.22977831796922    3.12573813004905
H         5.29297457456750   13.75330383649501    2.20294031244293
C         5.26542659997966   15.56734644700924    3.35614095847385
H         5.77729834285169   16.15931827142214    2.61250266691250
C         4.85872689642720   16.13294600378233    4.55621211938311
H         5.03974488162350   17.17299910441161    4.77342436287370
C         4.20487921125153   15.33118671591325    5.47300771986336
H         3.85630818336616   15.71864412818833    6.41901690494695
C         4.43604537612988   13.82397088913984    8.99999905325981
H         4.48665369788043   12.78584787306260    9.33591706853172
H         4.46606269760829   14.49172445598865    9.86560928631040
H         5.29095304841352   14.03061800054973    8.35811699096008
H         2.50444794010467   13.88728866788813    8.79474810829979

