93
CSD_code = ULAKOI | q = 0 | S = 0 | Stoichiometry = C36H48N4O3SZn | MND = 5
Zn        5.97295331704271   11.48573795629943    9.61261104121280
S         5.36940925725648   14.69197829105839    8.82053542610881
O         7.44958792261748   12.07037649215839   10.64506462401164
O         4.78736655071032   11.26443530311214   11.05298913943079
O         5.30724939116667   13.20896103698936    8.84407610643757
N         7.26176497563843   11.20253296269726    8.08318570864363
N         4.82278088895256   10.27803189642082    8.51451825442867
N         7.73513680358281   10.39112225306926    4.74375179794777
N         4.05556241527302    8.92637505616444    5.40362313699034
C         8.65375590426514   12.39698868623622   10.35856703273934
C         9.53323857680834   12.91502113058320   11.37401195879566
C        10.77661286426941   13.35904378022398   11.01137971124378
H        11.42303424424389   13.76184147147731   11.77206424222798
C        11.28231593653610   13.31721155326879    9.69372717415949
C        10.48704509631983   12.75824418927451    8.73559862995516
H        10.82288972220015   12.65516635426337    7.71581705695052
C         9.18717422991550   12.28358985392589    9.02931188065981
C         9.06953196836023   12.92358892138681   12.82659353704125
C        10.11994745230231   13.49652795795658   13.78412189935260
H        11.03875464279413   12.91526579195091   13.75743100027547
H         9.73247345732741   13.45699938817801   14.80014683211689
H        10.34396478934251   14.53608287599264   13.55264903079861
C         7.79281266200111   13.76323022067514   12.97011923448720
H         7.50206786750158   13.82258610653912   14.01666435438057
H         6.98413805603566   13.29726636825968   12.41697467259681
H         7.96028374265344   14.77503370398153   12.60099716593667
C         8.78167115467400   11.47572261492510   13.24682726064657
H         9.68508805763032   10.87398722212463   13.16794450048204
H         8.01762809643564   11.04170814440113   12.60988713246945
H         8.43206084617831   11.44589544970174   14.27636549038097
C        12.67313783508438   13.86758161007429    9.42361873846629
C        12.70845441957452   15.35262667351155    9.81270244432884
H        11.97925695447927   15.91125627411556    9.22886210982370
H        13.69554985309387   15.76679708120795    9.61897789199159
H        12.48244502166455   15.49408932172797   10.86608459015645
C        13.06967155284035   13.75126238218544    7.94948294828110
H        12.37784470660351   14.29912306901952    7.31370858803956
H        13.09660056726054   12.71129122844734    7.63335536486610
H        14.06300797625727   14.17145711926238    7.80611689126476
C        13.69811977161619   13.08648083483537   10.25789749920562
H        13.65212251954524   12.02755370613719   10.01247014224860
H        13.51381624943850   13.19760342406489   11.32291160104953
H        14.70323181380975   13.44632466928672   10.04846441101092
C         8.47110802527106   11.68138846031719    7.97811674646510
H         8.98829992094887   11.60083987119604    7.01627367968995
C         6.62576739709032   10.59500761687653    7.04230490501304
C         7.22217182453711   10.46600853963746    5.76874484026884
C         5.35109890181067   10.10561438468151    7.27222588259393
C         4.64696052556649    9.45567006132684    6.23324759138258
C         3.63814706046156    9.82531380059949    8.83361998901613
H         3.06895010203101    9.27671347424198    8.07622608868570
C         3.03265143113064    9.97208540014528   10.09158085880392
C         1.76198226467684    9.37858357225864   10.26617698320999
H         1.34017048352404    8.86494193605901    9.41427893223142
C         1.08838702510699    9.43651009858304   11.45396696051410
C         1.71761008424239   10.11253711575389   12.51915335816070
H         1.20002923237890   10.14953981295370   13.46014376390144
C         2.94298204192292   10.71986918791125   12.42608430538648
C         3.65515835655204   10.68336811511906   11.17632645022161
C        -0.27881751484992    8.78201597264113   11.59417054093287
C        -0.14350971878749    7.27879779499009   11.31315576175381
H         0.56204606035886    6.82845908866258   12.00824497362775
H         0.21123461385613    7.09659063430785   10.30280697313836
H        -1.10647506759776    6.78606406705721   11.43029947057673
C        -0.88220783365414    8.95223937003454   12.99123927340406
H        -0.25598913755164    8.48767156154639   13.74943446886909
H        -1.85757837595485    8.47063143951809   13.02319373599481
H        -1.02095217603443   10.00332322363717   13.23413793200654
C        -1.24189850584626    9.41431452912749   10.57935544573310
H        -2.22835765450880    8.96358141099942   10.66626604081029
H        -0.89166247871701    9.27272795296781    9.56096474007146
H        -1.33287543473996   10.48298040388029   10.76282892990906
C         3.57109846458791   11.43024062771192   13.62027575074255
C         2.70474016771540   11.36636547545188   14.88272933459183
H         1.74272958668988   11.85109822587555   14.73044369543388
H         3.21602519547893   11.88837436735727   15.68931324497311
H         2.54374905592925   10.33887820323888   15.20093508863204
C         4.92189859313211   10.77660301528329   13.94070192215675
H         5.38247891478919   11.26951594320410   14.79432730593134
H         5.59123287091409   10.85575946414931   13.09100098684369
H         4.78359654286558    9.72411931339069   14.18043104538101
C         3.78223751136431   12.90783150338827   13.26493519859113
H         2.82861268341915   13.38156927246658   13.03704118800219
H         4.43100409959611   12.98336460280018   12.40024907314069
H         4.24271861051031   13.43422938520838   14.09842369792364
C         5.06240606267459   15.22474170732623   10.54298449371255
H         4.03747713387930   14.96853164774006   10.79201207108677
H         5.20229759105479   16.29762581500650   10.60995750356448
H         5.74321148218803   14.69910114785425   11.20392140721607
C         7.15236774946412   15.12174622393106    8.81327663681803
H         7.57261279031360   14.79390871845205    7.86730905910385
H         7.65660442721762   14.61475210482095    9.62950841368400
H         7.24900888175128   16.19765391118078    8.90374500640798

