43
CSD_code = ULAMIE | q = 0 | S = 0 | Stoichiometry = C18H18N2NiO4 | MND = 4
Ni        4.84388225541141    7.64580143827930    9.94567573311476
O         4.75134460002456    6.36428232497902   11.27022130991358
O         4.83899796841340    8.93583490084095   11.26479727287854
O         4.72256224618436    5.06169445342801   13.53090649785302
O         4.70018919195283   10.25324807535646   13.51293824086367
N         4.77009427353329    6.37167978020693    8.60630894809506
N         5.01644443228098    8.91102549776200    8.60684200307713
C         4.77684540620085    5.09160750845675   11.18281710771244
C         4.76638231750894    4.31192080354746   12.39780016194980
C         4.69505136471497    4.40312667157312   14.76850273406100
H         4.65013215567275    5.19012436722835   15.51958624103367
H         5.59757163768645    3.80211533772597   14.92813226371721
H         3.81279021616154    3.76002079862210   14.86531218283776
C         4.80056497769958    2.94253769289819   12.34813677982067
H         4.79719653973137    2.35963728351279   13.25618262539973
C         4.84007132746049    2.26180516026558   11.11897580117214
H         4.86726805704402    1.18300833490177   11.12014727454204
C         4.83977996072707    2.95735108176940    9.94839147558096
H         4.86506526940960    2.44161181534154    8.99935329575172
C         4.80629355089832    4.37098686440361    9.95165512285616
C         4.77692650700363    5.08011220597757    8.73033070010833
H         4.74359375054200    4.47620083460442    7.82075373643028
C         4.62983824474784    6.93857595671436    7.27165279266087
H         3.56006991382785    7.01745907465058    7.03757475238262
H         5.10434826530213    6.30031591352058    6.51600197780912
C         5.25291386088862    8.33536916028178    7.28961492198553
H         6.33678818062490    8.25525141182301    7.13404353948991
H         4.83440056123401    8.96848179043194    6.49743884850518
C         5.00232297011548   10.20338465950045    8.72171256179535
H         5.10313105913408   10.80131846775256    7.81317365939574
C         4.88377806554056   10.92050093833578    9.93292634257554
C         4.85197116528735   12.33409934179806    9.91798850113718
H         4.89809309906120   12.84361621978360    8.96640781028661
C         4.76469691488594   13.03728619521653   11.08072693303659
H         4.73811467419313   14.11606969303720   11.07286772467448
C         4.71164768250836   12.36457446851239   12.31378529407677
H         4.64735439869298   12.95339661679431   13.21571975473890
C         4.74134331200724   10.99553500775763   12.37480363559984
C         4.63473625461745   10.92001932927584   14.74471391157982
H         4.62282409467478   10.13803359531750   15.50226153076467
H         3.72292018777307   11.52186226614967   14.83201818142225
H         5.50738006066373   11.56398615958865   14.90327495811576
C         4.82097902795752   10.20793050207619   11.16752485919724

