66
CSD_code = ULAMOK | q = 1 | S = 0 | Stoichiometry = C30H27CoN5O3(1+) | MND = 6
Co        4.33906737309469    7.08908539936656    3.43386265942713
C        -0.35257767457215    5.18443946694009    3.02880399194749
H        -0.05255409710501    4.64772648188399    3.91438093604903
C        -1.60204596272650    5.00295240001494    2.46904250360761
H        -2.29830834262018    4.31294020469589    2.92079101415494
C        -1.96439961993657    5.70395257861865    1.32829583062737
H        -2.94222392455465    5.55965474464014    0.89470087203985
C        -1.07296236816478    6.59004449818452    0.74421672641553
H        -1.35647549621237    7.13578524890362   -0.14310037587686
C         0.17875995593083    6.77708513262651    1.29808283473823
H         0.88225387221181    7.46575025996112    0.85390751667213
C         0.54726871541164    6.07515619802130    2.44450939921217
C         1.87636152558099    6.27608546020525    3.02805392724686
C         3.88825167412642    5.35461612302508    5.62133178173800
H         3.22009892335611    4.66942996276197    6.13459068704472
C         5.16869727122323    5.59359850599965    6.18891015363277
C         6.11499146300863    6.42144728989271    5.53408216341758
C         7.37597621557270    6.63849913074866    6.16958912178205
C         7.66002715385430    6.04331227766899    7.37559010811342
H         8.61003841942572    6.20542336700925    7.85815367298489
C         6.71850545083748    5.21757370986469    8.00113286074198
H         6.96767640537970    4.76182411434352    8.94571417046923
C         5.50043775208633    4.99673185411851    7.42394140446312
H         4.76958257576737    4.36618684808020    7.90573012451617
C         9.48214161269320    7.73404971862802    6.01319741973352
H         9.40610431320675    8.22976883470231    6.98583322629329
H         9.97087337847452    8.40229950814211    5.30613117369662
H        10.07545778800504    6.82060884058914    6.11644807306993
C         5.56094408365123    4.54280561584961    2.77179704260236
H         5.83372221805360    4.56022775825198    3.81643508242289
C         5.92669653900590    3.46536559959891    1.98400842390922
H         6.47804036733541    2.64940618761509    2.42261271866798
C         5.56968070690926    3.45355851830739    0.64583886597571
H         5.83350718251739    2.62538010669124    0.00686691706222
C         4.85842210358639    4.53629363792073    0.15367949458920
H         4.55152262934409    4.58045937872388   -0.87889057581532
C         4.53583990098215    5.57443362453092    1.00803629144687
H         3.96732498389412    6.41930883586189    0.64641321593333
C         4.47743474828590    9.18919427230992    1.40995105011766
H         3.40667759640727    9.13756210698246    1.54569338994428
C         5.03008907975776   10.06190825729327    0.48908920894641
H         4.38913167197779   10.70249297590922   -0.09520342348398
C         6.40741963985388   10.09546662382304    0.33748620145743
H         6.87017167935119   10.76278720844634   -0.37306189882106
C         7.17285841302958    9.25158322395322    1.12620065030249
H         8.24836948111828    9.24225296915741    1.05182682809036
C         6.53834337434227    8.40856356373646    2.02212013914854
H         7.10621114558494    7.75516307250153    2.66977583161354
C         2.55208379438233    8.77768571984497    4.99302013713798
H         1.79899905735308    8.07646209119806    4.66436289585837
C         2.18338901286415    9.83181359161300    5.81045119720543
H         1.15237549237598    9.93832617778239    6.10629848593328
C         3.15051341080813   10.72670251381333    6.23628865335763
H         2.89651795083216   11.55700228088914    6.87628146901559
C         4.45509996114241   10.52018578451738    5.81690639538263
H         5.25036251969249   11.18167356477530    6.12029562698356
C         4.73909270577757    9.44426002200119    4.99638423847077
H         5.75385072417986    9.25530081529411    4.67742876781798
N         2.20653236755547    5.60637528969182    4.10381814243414
N         3.44410532455628    5.90196934823249    4.53265147715404
N         4.87568168115574    5.58536719642044    2.29917050075074
N         5.21344337250973    8.37033990553872    2.16265704955924
N         3.80717798553552    8.57923920149201    4.58470533115216
O         2.69654829523399    7.11875351651261    2.49613784850422
O         5.92439655276210    6.98592376792130    4.37811489251175
O         8.21089789293739    7.46587751536334    5.46962745870271

