58
CSD_code = ULAMUQ | q = 1 | S = 0 | Stoichiometry = C23H24CdN7O3(1+) | MND = 7
C         9.84476956847228   14.25252511647504    8.78131348052873
H        10.08450114572723   15.27690188013278    8.50110566830896
H         8.95543472490314   13.95283056196936    8.22910914044543
H        10.66382742543228   13.58734842724428    8.51164078115514
C         9.57629250979908   14.16199913338775   10.23557917794771
C         8.62365248718964   14.87509961567312   10.99376654603885
H         7.92888418325917   15.60336669331384   10.62959535069281
C         8.75241089465502   14.43747480020980   12.28755184470765
C         7.93828683154547   14.84486514406857   13.45820220637236
H         8.51453866767958   15.45423409532297   14.15442436476129
H         7.53983581065110   13.97845219181524   13.98350493627961
H         7.10397238864318   15.44517149606937   13.10452788827324
C        10.28805907731132   12.69199162708321   13.27859510385001
C        10.08369504876537   12.88169871187819   14.66102017494710
H         9.52488435463376   13.72022300011550   15.03355228656144
C        10.63285855982419   11.98160745139915   15.53939980871375
H        10.48826743663332   12.10440265751743   16.60240207545242
C        11.56573204431818   10.81541086173875   13.66764076160020
C        11.38368719770751   10.88925095068627   15.06430239872782
C        12.30771523887589    9.72359391795105   13.10713991143947
C        11.94685497141617    9.88243334295073   15.89689565874682
H        11.80410205150815    9.96140112614416   16.96384901940515
C        12.81535281420257    8.72010140931164   13.95879885001528
C        12.63032812596249    8.83623618994294   15.36477937985020
H        13.03931638634774    8.06546536447323   16.00008408986279
C        13.45577905305242    7.63386084596352   13.33287089271135
H        13.83879683543506    6.82408391879655   13.93580153657516
C        13.56736466369841    7.58799186340661   11.96575078341519
H        14.01006620936264    6.73068308604809   11.49313225944528
C        13.05742646411361    8.66136308052923   11.20715971482063
C        14.90719249400703    7.04941289569214    9.17586551221157
H        15.49695383853823    6.90029850292628    8.27481348963641
H        14.47011216177849    6.08803422540193    9.44555404421057
H        15.57098141854965    7.37726161436983    9.97396613191080
C        13.85775762919605    8.05833809008709    8.89018181338462
C        13.48329875831192    8.54296814484473    7.66257803920426
H        13.86726622593925    8.24069143274897    6.71010185261856
C        12.49005593685499    9.51654309111612    7.90451085167327
C        11.75945802509345   10.34036425418223    6.91357656167081
H        10.91370807204917   10.83441205661088    7.38978450886649
H        11.40438853631031    9.71480132171419    6.09746961973298
H        12.42413372959603   11.09425570698184    6.49269474166203
C        14.30602287346266   12.51213363493900    9.47793032156508
H        14.45298361498746   11.52834912663134    9.03661818555795
H        14.88227006303687   12.57955544569909   10.40536623943770
H        14.66162040906092   13.27106775088177    8.77575373411692
Cd       11.07255343326635   11.11972444985919   10.53585585898086
N        10.24605891495663   13.34563533190217   11.02345950232785
N         9.76039569190627   13.50487293661194   12.28160023964333
N        11.03760023882673   11.70502547650955   12.82476928747960
N        12.45846249193249    9.68683276702830   11.78120679767739
N        13.10357245573029    8.73201426609496    9.81793133133778
N        12.28570287138270    9.61996624632713    9.20062836543048
N         8.72991890442830   10.22393554457683    9.94916426939335
O         9.32992712292527   11.02357371040360    9.21575732342277
O         9.32937260154460    9.87595754465167   10.97867804902426
O        12.91678363464008   12.65882319180109    9.71937038176517
H        12.76245468056461   13.54478267778909   10.06971685440702

