97
CSD_code = ULAPOM | q = 0 | S = 0 | Stoichiometry = C31H57Cl3N2P2PtS | MND = 4
Pt       11.10323051634811    1.78795722936775    3.49318001476846
Cl       14.89995973815370   -1.22519795068891    4.35895630261762
Cl       10.09294836877026    3.79405818052398    3.34643667005618
Cl        9.52353785666907    0.97665205983013    2.05017664488248
S        12.57219504714480    2.64409135559124    5.23808487047411
P        12.13538284613999   -0.22217028548102    3.64162748717452
P        14.19181212856459    1.78019771424475    4.43304952306106
N        15.48356716259540    1.86324050036915    5.48249751372885
N        14.68711953716179    2.52560978012097    3.01796530541659
C        13.75481087089985    0.04745342606058    4.06850591973977
C        11.97995902001177   -2.03075814764410    3.68847292695730
C        11.59625224182601   -2.64055918816708    4.89648444472299
C        11.96837893497440   -3.96545687399899    5.10665876845711
C        12.67020526894229   -4.70644360070453    4.17417435678273
C        12.87153829250425   -4.12329484823277    2.93169465809523
C        12.51443450193844   -2.81518062258215    2.64680106765072
C        10.73575014281989   -2.02181307824007    5.99713376487292
C        11.51946682794433   -2.00532968588340    7.31793697568030
C        10.24171762275993   -0.60226656404977    5.72730156879653
C         9.47461962329934   -2.89432331762651    6.14009732980718
C        13.16755620051302   -6.11806071640034    4.43413239319046
C        12.90517221228119   -6.58115700061741    5.86968088927100
C        12.45380119392383   -7.08378918717331    3.47797498158013
C        14.68230629424628   -6.16187125054018    4.18784288928904
C        12.68060138744078   -2.36259128088426    1.19947052637903
C        12.05413443791275   -3.42287477071390    0.27491959859896
C        14.17168574448623   -2.21343205015736    0.86900166954438
C        11.96034166688969   -1.05401443692109    0.89832815650162
C        16.85427866290702    1.89755684416396    4.96661159357545
C        17.66642368545712    0.64488171657953    5.29944073504205
C        17.60680789500732    3.14133261168146    5.44317392282209
C        15.33221540058970    1.79420785472914    6.94282961939209
C        14.88249509872634    3.12288095871290    7.54960671773884
C        14.41339286255893    0.65573727602527    7.37095067681241
C        14.80476463962586    3.98570891928195    3.18690472695758
C        13.58938630231221    4.80562148140362    2.75484380401991
C        16.06404886190190    4.56565526614067    2.54581542906746
C        14.59881479379203    1.84113431242365    1.73074379620465
C        15.92637573267480    1.80836448432804    0.97002594885091
C        13.47026335138383    2.33863123811957    0.83070641718266
H        11.71414917827997   -4.41975437917200    6.04753369118330
H        13.34013045616212   -4.70715219619735    2.15761910882093
H        10.93857092223342   -1.50239821456785    8.08744842255286
H        11.74535917473945   -3.00847003593961    7.66854379345392
H        12.45749685172536   -1.46969342066427    7.19047259195856
H         9.46980744060957   -0.35024973619683    6.45350002228740
H        11.03813732004116    0.13415401880947    5.85768569475463
H         9.79064424184787   -0.51349684793254    4.73578379189221
H         8.84167887728892   -2.49883472968711    6.93103385925821
H         9.70821370056732   -3.92608976904769    6.38410138202738
H         8.91043836655245   -2.88334928342548    5.21019077047490
H        13.37881529637809   -5.91550560243412    6.58785488114543
H        11.83898352598922   -6.63439149213896    6.07755431199736
H        13.32057644955123   -7.57685326761845    6.00994322404717
H        11.37693279222055   -7.02991844441290    3.62308578940350
H        12.77749299715788   -8.10468814123490    3.66814935475619
H        12.66892490490229   -6.84687862791112    2.43974495356905
H        15.06573623441214   -7.15915800079572    4.39153720045457
H        14.92694349435433   -5.90893436356992    3.16002567535113
H        15.19009303106850   -5.45614587924714    4.84213308698961
H        10.92974968553311   -1.07006340656906    1.25205006055819
H        12.46997117179460   -0.19908859818262    1.34397925345658
H        11.93799206777998   -0.87878316862534   -0.17570268876524
H        11.02442643895600   -3.61265802682343    0.56783228464847
H        12.59638670611382   -4.36333510178528    0.28928016291551
H        12.05711458879972   -3.06004510518160   -0.75016724739888
H        14.69994542610826   -3.15421804434725    1.00340562136937
H        14.29523681310809   -1.89509006588374   -0.16380839081033
H        14.63608995059880   -1.47303104979586    1.51623369785609
H        16.75172853144457    1.94506890575236    3.87863541542329
H        17.88392640966201    0.57494635793101    6.36238328251546
H        17.13816912095984   -0.25206073319769    4.99418710627233
H        18.61289869140640    0.68540529152709    4.76580082665486
H        17.81697153400079    3.08702030016519    6.50838890016181
H        17.03347164527105    4.04261719219970    5.24723819720023
H        18.55520417831407    3.21390470539118    4.91608135886680
H        16.32970826962867    1.57232683523472    7.33335052120931
H        15.52190096097167    3.93481422103903    7.21488008091776
H        14.94240546832998    3.06135679402715    8.63369063182338
H        13.85831113689894    3.35062028578537    7.27269139961413
H        14.40337536265181    0.58140986145817    8.45578869661080
H        13.39758152159389    0.84008185443724    7.03028598048364
H        14.76697156146758   -0.28847044125821    6.96252730608228
H        14.89516723744455    4.09898593188390    4.27836031092296
H        12.65532271592185    4.32037906593009    3.02611289393579
H        13.58461440413450    4.99193905668627    1.68568111118148
H        13.62084189819372    5.76755809262566    3.26128824018912
H        15.93417914824770    4.67970425344120    1.47323853989003
H        16.24560666070474    5.55378803209676    2.96269334256084
H        16.93655015338709    3.94728723947635    2.73261472825226
H        14.37454169736369    0.80048176192178    2.00156374748216
H        16.74343231956247    1.52133862218718    1.62796386083517
H        16.15751494869984    2.76584441951666    0.51596201747758
H        15.85465544296425    1.06743488179220    0.17697883282408
H        13.69122819052236    3.31908882884528    0.42267156266408
H        13.34194900943613    1.64940936353561   -0.00021933706337
H        12.52488070288306    2.39205164688565    1.38467547890783

