55
CSD_code = ULASEG | q = 0 | S = 0 | Stoichiometry = C24H20I2N4O4Zn | MND = 4
I        21.13406644857892    5.99938216099431    6.08880552557993
I        17.60525771797087    6.53261278371233    9.13890071959544
Zn       18.76398569738644    6.21934511022040    6.92305370188211
O        12.71010804291108    2.26567611772665   -0.58496275344732
O        10.98699409255598    9.41539925123291    0.70271663967656
O        14.34181993694112    1.30932697451077   -1.60519731554533
O        10.15079993007695   10.89741095789057    2.01516226434594
N        17.74503913142350    4.49296787178817    5.99371795885390
N        17.85736296707200    7.77408960701982    5.64010889136282
N        13.77657472644058    1.69085736156143   -0.60336452478661
N        11.07832421280337   10.25842106229448    1.56822935004356
C        16.84014537421220    3.77382120850831    6.64877863016470
C        18.56483440185895    8.42379832657252    4.72185554495395
C        16.35205205936949    2.56807407506501    6.18042443930427
C        18.09603144983592    9.54409702494633    4.06169228426135
C        16.81928263840543    2.06729583636601    4.97185035523289
C        16.82940081028115   10.03118381392251    4.36021800395808
C        17.74866811587046    2.83818839584651    4.27913393208047
C        16.08412632485427    9.33069079273476    5.30470125374423
C        18.17982114915636    4.03035584527886    4.82451185877531
C        16.63406782451651    8.22048680728779    5.91306849702241
C        15.66730775165449    0.97598991117285    3.08852303196565
C        14.90533809236669   11.01951830927553    3.14733166988152
C        16.26620598542488    0.56433914955362    1.90265529285738
C        14.73890675348581   10.08820519522394    2.12444620968595
C        15.64985885221627    0.79327556572444    0.68786400038605
C        13.48776081618388    9.83336889005207    1.60235952391963
C        14.42422841632600    1.44546199682478    0.66232281995541
C        12.39022225270672   10.51884070021753    2.10980985778958
C        16.34211904747957    0.75539793998300    4.41574382537113
C        16.27976125953472   11.26680254924434    3.70636475023142
C        13.81169712882325    1.86607977419484    1.83697621197465
C        12.53639643906406   11.44993495779995    3.12939187723018
C        14.43803077785585    1.62970859148900    3.04321795154822
C        13.79482069980842   11.69277532268165    3.64495253739605
H        16.49504728123762    4.17182745015050    7.59284944614533
H        19.55285903908586    8.04001543199537    4.50917141681919
H        15.62721495878215    2.02378041507603    6.76554075336412
H        18.72334727232071   10.03482194453446    3.33388964597621
H        18.14175900262237    2.50833206514047    3.33037467368322
H        15.09012792138304    9.65312187150614    5.57232218869873
H        16.07534664489427    7.67382533409253    6.65926902080241
H        18.91338846230993    4.63360931824776    4.30887768661231
H        17.21752309677101    0.05412632439628    1.92911284810008
H        15.59944624481078    9.56398127575243    1.73588265115590
H        16.09921335989756    0.47636269127901   -0.24073566414322
H        13.34199737146748    9.11724982043180    0.80830884290804
H        15.64329560501074    0.29338625308317    5.11556603959193
H        16.95170092151330   11.58484183532079    2.90595228050357
H        17.19784185546680    0.08889845990304    4.28903165914396
H        16.23678035385857   12.06645696351133    4.45017656132233
H        12.85773442713148    2.36789507593093    1.78455068619059
H        11.66538491418911   11.96672581419004    3.50204129685894
H        13.97028930820060    1.95091628591698    3.96195035320967
H        13.91498463369798   12.41554513063254    4.43810279571067

