61
CSD_code = ULATEI | q = 0 | S = 0 | Stoichiometry = C17H38ClNOP2Ru | MND = 6
Ru        2.28738609875492    4.00264394635242    8.30478315872765
Cl        3.92247447868636    4.86810770422077    9.82886382829156
P         3.25278341873716    5.29524067568657    6.68280782126608
P         1.12301616842914    3.25371873289819   10.12572988458774
O         3.73440854785200    1.46000501090704    7.69255461702136
N         1.31513604421539    5.88622571973663    8.82007682818326
H         2.04106761736391    6.22855455067911    9.46946896011524
C         3.17237164904399    2.44142864182512    7.92675060418696
C         2.87299415903639    5.02769779400241    4.87887783922553
H         3.48734255346054    5.71226909149150    4.28315070142055
C         5.07656430596967    5.68322690220125    6.75903456951083
H         5.17248644498985    6.14610914492273    7.75172031670451
C         2.56522581850398    6.99133294933937    7.03497854418767
H         3.26731074329606    7.48241426741870    7.71850480109835
H         2.48026050359171    7.59437406991870    6.12825935135595
C         1.21046547446807    6.84572193385214    7.72243674698111
H         0.86949637060863    7.82661163473315    8.09540719601600
H         0.46317367493607    6.46933753697224    7.01573436671750
C         5.91914503110697    4.41153235960437    6.77334596113530
H         5.48633023056556    3.68345646983468    7.45954583428726
H         6.92989737281755    4.63784671393159    7.10938189540728
H         5.98442314956124    3.96246000911650    5.78471600813181
C        -0.26656694620454    2.02570609785423    9.94894489807317
H        -0.64403900850133    1.77313746707378   10.94621576315236
C         1.39876441781079    5.28681934659157    4.58861441130462
H         0.78561418530229    4.69902503388210    5.27093766673033
H         1.16333261761211    4.98150270802215    3.57022839508315
H         1.14323699026406    6.33960498323901    4.69014213965901
C         0.06993169219915    5.75317905598895    9.57384142581833
H        -0.69635618124113    5.36664882318603    8.89347015349119
H        -0.26438548298605    6.73621434382643    9.94719382035680
C         0.27460978346411    4.79401332991390   10.74327446967260
H        -0.67502493851309    4.56801338690558   11.23330998458726
H         0.94667735410980    5.25447252141569   11.47641374435183
C         2.03343655227436    2.76252589231122   11.67895612536459
H         2.59130917270048    3.67895376870825   11.91948268394617
C         3.21501881955148    3.57864693552924    4.54593055657579
H         4.27618095662253    3.37968120744367    4.67159724547603
H         2.94123254804805    3.34550230798137    3.51803333137667
H         2.66292802807079    2.91810297027044    5.21704846972266
C        -1.39989024749553    2.60613196366689    9.11041093991751
H        -1.91656340975314    3.41201198738280    9.62760161922774
H        -2.12952463195055    1.82954164766577    8.88654323329722
H        -0.99967447193594    2.97969719689587    8.16847978945140
C         5.56863355295377    6.66558951291533    5.70155443013144
H         5.61999803169753    6.19206324924120    4.72320121224651
H         6.57236031989352    6.99991806890460    5.96019552687090
H         4.92662054998449    7.54207043152833    5.63501078827239
C         3.06269633329002    1.67074113923360   11.40350659016324
H         2.59242399725330    0.69933928079945   11.26777765687441
H         3.75865870238844    1.59636632028041   12.23775730439293
H         3.63119584469686    1.91110887689420   10.50508758865819
C         0.29752286155698    0.78537746943809    9.26292207497383
H         0.76038072521198    1.07838370361684    8.31874281414561
H        -0.49356393848966    0.06546881192876    9.05871183806462
H         1.05278814931807    0.29947974066120    9.87514566042670
C         1.13823592382110    2.40050012699811   12.85905576913234
H         0.35364844789917    3.13945608774293   13.01123482823266
H         1.73918502418669    2.35342458048954   13.76605011932912
H         0.67938380123860    1.42446569772177   12.71537962306612
H         1.12802401763410    3.64139806621184    7.37296547382105

