63
CSD_code = ULAWIO | q = 0 | S = 0 | Stoichiometry = C22H32CdN4S4 | MND = 6
Cd        9.69276494123514    8.69040540944393    7.93976134214431
S         8.04137230477801    9.23411093877922    5.99070647290300
S        10.80001629989597   10.28444076360261    6.14632269125634
S         8.67070977182333    6.91939495473324    9.63740514927134
S         9.24010006058982    9.74947636987298   10.28896290894337
N         9.20603663849849   10.67420351233355    4.10018621108121
N         8.22227456337004    8.00138765310795   11.98438280054003
N        11.92985922897911    8.04122435240191    8.62235772215194
N        10.49221804966581    6.69791236682148    6.73656494785895
C         9.33536781055247   10.10543328219247    5.30461368595011
C        10.30890600432573   11.41853243235724    3.53929697655652
H        10.66720834896672   12.14774617333088    4.26747109417486
H         9.97256178006307   11.93370544727404    2.64283035790700
H        11.14464355035977   10.75840444263766    3.29220480556343
C         8.06933497245630   10.42687554231551    3.24214376583867
H         7.77857384740390   11.37342524206287    2.77567144106368
H         7.24538567756906   10.07607596186190    3.86594719620460
C         8.37841426377896    9.38558193897896    2.16135146126925
H         7.50330682290617    9.29807840165722    1.51435233270156
H         9.21491434962921    9.72955823346236    1.54828905394660
C         8.71134596428452    8.01896823537375    2.75563419779105
H         7.87224951136162    7.68619641510930    3.36938968676880
H         9.58344479755182    8.10806583332796    3.40788113700406
C         8.99671746074431    6.98664015046641    1.67278454601024
H         8.13009361604376    6.86033010968788    1.02727050657666
H         9.23761501458807    6.02378420653807    2.11753762649591
H         9.83815888823032    7.29926967345371    1.05758515935944
C         8.66736836042782    8.21084977169351   10.73988626180371
C         7.65569037699162    6.71880860001155   12.33005269749986
H         6.79219307077551    6.49359552760095   11.69903561396436
H         7.35192389106346    6.72890013078679   13.37337126513294
H         8.39543845757317    5.93150577017074   12.17071994671216
C         8.10023315922941    9.08169554852385   12.93809723144959
H         8.90153565197888    9.79904422492450   12.74544272188463
H         8.23312508865608    8.66958142266482   13.94217836186196
C         6.74791608947008    9.78954604787766   12.82583851863377
H         5.94421140320999    9.06863916193778   12.99432465643229
H         6.64641834429784   10.17814782531599   11.81090383044728
C         6.62961947221100   10.93615370427072   13.82478618368855
H         6.74341209206224   10.54702821454102   14.83986958871995
H         7.43870176381254   11.64745895339995   13.64808563480940
C         5.28978771944366   11.65063760029683   13.70072850380103
H         5.17168964339148   12.06159419504508   12.70095998638575
H         5.22248445428367   12.46539085955001   14.41779636699281
H         4.46918350809978   10.96069741673169   13.88629149724359
C        12.68403797834784    8.84636359435115    9.34937985457959
H        12.17636410366188    9.69405825571737    9.79568295816108
C        14.04044706655665    8.63142808730192    9.54487257821347
H        14.62117365803160    9.31095154562745   10.14797440338634
C        14.62439932441296    7.53180372839443    8.93690623893909
H        15.68072863985867    7.33554922226110    9.04920189879200
C        13.83406928300315    6.68647691660274    8.17735119262162
H        14.26980471317472    5.83647654591982    7.67616926725964
C        12.47453527061602    6.96940013325894    8.04670491068710
C        11.56767441843346    6.10868208091393    7.26092720872723
C        11.81144102079758    4.74682631531749    7.08650330470792
H        12.66279963069164    4.27600835678705    7.55239464769036
C        10.92267829748851    3.99806667690072    6.33436298347107
H        11.08611123143113    2.93984703083144    6.19160140166932
C         9.82119765557790    4.62631665380471    5.77677839661877
H         9.10699960112366    4.07958879258950    5.18190982030608
C         9.64611215978732    5.98109020453408    6.01744518432839
H         8.79379886041241    6.51806284021204    5.61795960499325

