95
CSD_code = ULEBES | q = 0 | S = 0 | Stoichiometry = C44H42N2O6Ti | MND = 6
Ti        7.02099893325293    5.26667870204851    5.76177852222666
O         8.65372379838622    4.98725861292511    6.62823899473293
O         6.33721956310606    3.63988065996837    6.93088744645538
O         7.70766802976635    6.35836313972685    4.60792915728442
N         6.42072768234927    2.46968971211359    8.85526381394359
C         9.19878401033833    3.86429042897658    6.95058685914237
C        10.58947674007341    3.65868364149405    6.78240335819860
H        11.15377779701901    4.45919462237217    6.32610261440196
C        11.19022509964201    2.48249329317981    7.15431328291009
H        12.25386722439099    2.35473470483177    7.00767686870357
C        10.44510236059721    1.44406343591522    7.71239922146451
H        10.92126621720035    0.51243770306889    7.97699735456805
C         9.09586968965925    1.61621429537520    7.92174321614770
H         8.51045179352692    0.80855950763522    8.33884760670252
C         8.46142685925447    2.81078759920086    7.57148377654535
C         7.02627519101668    3.01769723110719    7.75259972743447
C         5.00461535629266    2.41709844788303    8.90662065920485
C         4.28497264873149    1.94111587334373    7.81653824930477
H         4.80164532508087    1.62246358588052    6.92376405139715
C         2.90501884565494    1.88455923898171    7.87765130260945
H         2.35403938353843    1.51587450873099    7.02617318795496
C         2.23623929768065    2.29169255864718    9.01972805037539
H         1.15851166334480    2.24474481859744    9.06316147263527
C         2.95447294041820    2.76220622878981   10.10625930707836
H         2.43917763041315    3.08619667538558   10.99830119076891
C         4.33424903246399    2.82918013027631   10.05303973583539
H         4.89608347651172    3.20378527867546   10.89618970760209
C         7.13042372910243    2.15982342584844   10.03696883168736
C         6.81680582692134    1.00166940590319   10.74147206571856
H         6.04246090829996    0.34673251556505   10.36951138603848
C         7.49633375654283    0.69758153656451   11.90650740964985
H         7.25187653890621   -0.20475424377866   12.44679848316148
C         8.48839472295344    1.54197160516773   12.37639631615264
H         9.01973210331309    1.29980797388327   13.28414353517806
C         8.79075132444795    2.70221406210909   11.68233419254902
H         9.55320142631452    3.37092137508347   12.05210706148132
C         8.11184937944837    3.01910614135125   10.52089547776971
H         8.33442964746164    3.92973166142175    9.98538192134330
C         7.16700461185116    7.42566573419551    3.91258143361240
H         6.37792942902569    7.90106566245490    4.53393321742025
C         8.26189445706185    8.46274228793327    3.61534279037134
H         7.84521314010164    9.33088313898382    3.11027649461085
H         9.02632762490380    8.01079432068019    2.98642451848917
H         8.72472108341479    8.77651810541352    4.54858326795622
C         6.52159859697690    6.93397720955079    2.60574279964682
H         6.10588971984656    7.76673905592632    2.04255265783507
H         5.72546572418500    6.23232901191452    2.85273927316862
H         7.27397453602963    6.42846016538133    2.00058932194280
O         5.38826259847260    4.98721492218702    4.89535351186836
C         4.84320616152617    3.86424245938605    4.57301440529265
C         3.45251290179478    3.65863317068418    4.74118929726631
H         2.88820638834736    4.45914444411355    5.19748271634515
C         2.85176948608067    2.48244106240437    4.36927567050573
H         1.78812640426864    2.35468088134293    4.51590412709155
C         3.59689703905863    1.44401300677664    3.81119357723538
H         3.12073588052064    0.51238769577994    3.54658931455681
C         4.94613182734423    1.61616521844278    3.60186107387364
H         5.53155461336927    0.80851272117356    3.18475889180659
C         5.58056951725219    2.81073760035291    3.95212957594772
C         7.01572599013884    3.01764572754655    3.77103915733324
O         7.70476978689291    3.63979066412153    4.59279041750940
O         6.33434845065580    6.35848415027737    6.91551744967200
C         6.87503405327051    7.42570451241975    7.61097188393661
H         7.66420804644289    7.90107197204886    6.98971977649789
C         5.78020092722313    8.46285550229812    7.90816143258118
H         6.19690520832129    9.33093496075379    8.41331417615250
H         5.01567051919188    8.01093619384197    8.53698212246380
H         5.31748869205038    8.77672064392280    6.97489452071200
C         7.52027147052577    6.93389886149397    8.91785000755002
H         7.93597140719050    7.76660212170560    9.48113363875893
H         8.31638792849184    6.23221703107106    8.67089758996311
H         6.76779989274548    6.42839101977189    9.52289259381727
N         7.62128319443277    2.46967519360252    2.66836477767064
C         9.03739568618719    2.41709528571349    2.61700749541969
C         9.75704301044954    1.94109531855205    3.70707915495288
H         9.24037394588766    1.62242102259896    4.59984740364013
C        11.13699717948192    1.88454881655966    3.64596272986997
H        11.68798047866781    1.51585006483305    4.49743230694057
C        11.80577251576967    2.29170971720329    2.50389348663810
H        12.88350040393381    2.24476987525450    2.46045757203849
C        11.08753421142814    2.76224122443956    1.41737300832244
H        11.60282617628029    3.08625333437033    0.52533706402521
C         9.70775784580085    2.82920490633570    1.47059594418869
H         9.14591986416790    3.20382361727108    0.62745443219719
C         6.91158960623334    2.15983545364920    1.48665044355748
C         7.22520350071908    1.00169318071999    0.78212661879885
H         7.99954493337697    0.34674596736523    1.15407640662509
C         6.54567556113168    0.69763002104765   -0.38291528162488
H         6.79012895119744   -0.20469698252796   -0.92322274068315
C         5.55361933759685    1.54203372463896   -0.85278964956955
H         5.02228168910821    1.29988910519016   -1.76054181902153
C         5.25126758716833    2.70226520859636   -0.15870693821052
H         4.48882125794048    3.37098290096368   -0.52846877685066
C         5.93016930794295    3.01913248830600    1.00273878617654
H         5.70759368709669    3.92974922471294    1.53826945475446

