43
CSD_code = ULEPUW | q = 1 | S = 0 | Stoichiometry = C13H19N6O4Pd(1+) | MND = 5
Pd        0.83540204303716    1.91101670065851    2.62734492645828
N         0.10582300240171   -0.11294921516628    2.76126806222440
N        -0.20745301609655   -0.89141407276664    3.82079003814926
H        -0.13228381367402   -0.54277113004048    4.76794600767692
N         2.89194462364765    1.32850833523929    2.83106347304415
N         3.60085253740329    0.92903114504228    3.91027118263860
H         3.18387731013761    0.90431776291237    4.83187319332022
N        -1.02823806931553   -3.14008751165181    1.18325535048283
N         6.14995678747757    0.72076454640719    1.43182879180695
O        -1.43759704064150   -4.15276686862619    1.70286318921709
O        -0.91976016311377   -2.94022752346156   -0.00533878177232
O         6.04158050794549    0.96845335535364    0.25229991655961
O         7.15459739406895    0.35027234149091    1.99447895898701
C        -1.01659598028846    2.86651516548547    2.39120795975597
H        -1.08894178226382    2.96881291184475    1.30505708037603
H        -1.92560295743966    2.52516923081628    2.87888642881381
C        -0.14267978407788    3.71115817726426    3.09746727117674
H        -0.31286779483077    3.93586395404042    4.15043001983007
C         1.09560487845043    3.99085228136679    2.49096238966311
H         1.84924401716541    4.52695435370821    3.06143067101828
H         1.12487375924662    4.16783928247815    1.41299854510610
C         5.88327784919449    0.20001257909905    4.57955613323909
H         5.46103180150714    0.12103970850202    5.57739789342656
H         6.72396466186188    0.89330319182813    4.59132973567651
H         6.29400367399098   -0.76246336804824    4.27590162676981
C         4.87742861220609    0.64928466718801    3.60416256170919
C         4.98471397430956    0.87997430178568    2.23108318313747
C         3.71152237011789    1.30986746452625    1.79227439258866
C         3.27229541019923    1.71212389445297    0.43859439666032
H         2.23592403881056    2.07977783548063    0.47910590918668
H         3.34581966212475    0.87202247854861   -0.25040568551819
H         3.92863219635321    2.48884137747195    0.04882892723592
C         0.05668226976060   -0.24562959571973    0.31766624704044
H         0.27566150500162    0.83068849671970    0.40174287593795
H        -0.83088913415638   -0.40036153871964   -0.29341895820794
H         0.87529193622506   -0.75601375938591   -0.18816619503181
C        -0.14905106980898   -0.81287371311847    1.66793328948158
C        -0.63587394965632   -2.08361209386139    2.05028937624120
C        -0.66789861717519   -2.09542175834257    3.44666775246731
C        -1.09850775742713   -3.14431318770592    4.38445057567613
H        -0.98247651106946   -2.82590436666119    5.41664757898803
H        -0.52812279795566   -4.05668991600146    4.21330505152787
H        -2.14026658365747   -3.40366592045162    4.19676865720726

