55
CSD_code = ULIGUT | q = 0 | S = 0 | Stoichiometry = C24H24Cl2N4Ni | MND = 6
C         4.63052645764213    4.32065455460126    3.78040828958642
H         5.11588974325877    4.59117697463219    4.71005180113439
C         3.39999382878163    4.87421806967233    3.43472996797402
C         2.73542853468379    5.87200943400396    4.32528663100730
H         3.18972737177796    6.85101777667012    4.17264165206303
H         2.86872047958505    5.60498182963849    5.37140479464276
H         1.67302054047703    5.94821502684696    4.10491376965977
C         2.84190311916658    4.47732245194128    2.22562188656042
H         1.89137344845869    4.88134201516772    1.90700787421975
C         3.51777285351432    3.57532482524797    1.42270587944371
H         3.11241678938183    3.28386675088192    0.46663669742627
C         4.75178189786411    3.09526337024212    1.84627756613835
C         5.59369744548706    2.21187449925391    1.02925574215659
C         5.07374212614917    1.33731732102670    0.07780685083627
H         4.00632236821755    1.25136817181366   -0.05051463383552
C         5.93549444829889    0.57669255266977   -0.68716958689557
H         5.54949283229470   -0.10081670587032   -1.43536164791308
C         7.30766856194730    0.69146865657689   -0.48821414186925
C         8.28904053519532   -0.07535802235571   -1.31487759754390
H         9.22678865073245   -0.20753242418236   -0.78076425829014
H         8.49846898573474    0.46869304732012   -2.23626256932630
H         7.88972884645910   -1.05071364438446   -1.58445887986211
C         7.73564298585820    1.56743368174864    0.50248185312834
H         8.79205181007423    1.69234810688779    0.70391904443460
N         5.29396146595061    3.47084194277599    3.01489501376333
N         6.91475051285222    2.30142947303957    1.23505808329130
Ni        7.53042529200467    3.65540818362664    2.53861716091974
Cl        7.94427388356667    5.13011142854064    4.00017206945384
C        10.43037647963767    4.32055882562093    1.29684196744972
H         9.94498821253615    4.59115697013465    0.36724110512942
C        11.66086642549907    4.87419088204371    1.64258310204918
C        12.32543194736463    5.87200100757723    0.75204472251921
H        11.87106095719100    6.85099109898582    0.90463270728073
H        12.19222322190171    5.60492982102192   -0.29407602210228
H        13.38782534265424    5.94826907769423    0.97248975197352
C        12.21890664879418    4.47734974982526    2.85173145094078
H        13.16945748512870    4.88132269308779    3.17034824192055
C        11.54301936444593    3.57536699390499    3.65464363529934
H        11.94837061424900    3.28389657025385    4.61071135435594
C        10.30902046207813    3.09529482123683    3.23104504859608
C         9.46710216264776    2.21190376795841    4.04805852730037
C         9.98707934979331    1.33735733830451    4.99950594284749
H        11.05450389053084    1.25143214185241    5.12780438695972
C         9.12535108007563    0.57671341582899    5.76448619149429
H         9.51136455427752   -0.10079182683292    6.51267464802299
C         7.75317057672749    0.69146827846504    5.56552991956876
C         6.77183089832785   -0.07540633576669    6.39218696935343
H         5.83400920153099   -0.20742000986697    5.85816314862627
H         6.56256553111700    0.46850875384302    7.31368756304440
H         7.17109292529692   -1.05084227331216    6.66156675732360
C         7.32517733556539    1.56743042870751    4.57484427078218
H         6.26876099173196    1.69232437986905    4.37341923639715
N         9.76689830438918    3.47080035477825    2.06237596256467
N         8.14604807967723    2.30144242409561    3.84225810450658
Cl        7.11649214140015    5.12999130265990    1.07693199349581

