67
CSD_code = ULOFUW | q = 0 | S = 0 | Stoichiometry = C20H35B10ClZr | MND = 12
Zr        5.57306090372194    1.30662242871782    4.77023587324474
Cl        3.21653624536709    1.39662653292724    4.81255200262132
C         5.79685527370337    2.35931354118263    6.71353196282194
C         6.25990545722738    1.50437749469123    8.06042730659778
B         4.63980874363824    2.03055077926278    7.94672404701150
H         3.80345422609073    1.23657712752845    7.71181495984591
B         4.69640360336580    3.61266007703115    7.19933168998261
H         3.85319461120852    3.91055572778866    6.43047356649325
B         6.36626222936228    3.99710542317086    6.86985489863521
H         6.65153406729686    4.57414873009025    5.89024249710859
B         7.34787394193246    2.62962202230469    7.36684266729570
H         8.26181013125045    2.21677273382101    6.73299023124396
B         5.50905243921893    2.12066922654986    9.48527271950051
H         5.24001295555275    1.37487709250326   10.35054661012121
B         4.50031150841996    3.47755156854466    8.95818784575043
H         3.49274285242832    3.74436740152679    9.50241161842544
B         5.59256161589252    4.71077066332814    8.28321798484264
H         5.35243628588801    5.86157498049766    8.33037657682823
B         7.27326815592707    4.08706185065425    8.38042968277367
H         8.21182004237432    4.78648905872143    8.50384226071171
B         7.19252424966499    2.48408019238206    9.12655205769069
H         8.05275867674798    1.98287692055692    9.74963264268381
B         6.10788000631247    3.77082941076540    9.69245607022649
H         6.23026094655799    4.24135909351478   10.76408127414965
C         6.54267056820878   -0.00653956848977    7.87301641606590
C         6.24254370083321   -0.40866267847146    6.43861369157061
C         4.99943754680251   -0.86332258752744    5.93996270668784
H         4.08674759109499   -1.00044151173107    6.50349445651236
C         5.16557059277369   -1.22674503998963    4.58778927830971
H         4.41116317864582   -1.70206015659633    3.97176694858160
C         6.51509791541081   -1.02440990648597    4.24707757099213
H         6.99433438073122   -1.37496763476203    3.34517536726050
C         7.18016880021074   -0.48628190801927    5.37150688217276
H         8.25159655602332   -0.35196711658857    5.45048893125516
C         8.00416013523561   -0.37304526685859    8.19767593348241
H         8.19285628868566   -0.26907476441228    9.26269289677151
H         8.71760563927444    0.25141182076215    7.66889447172366
H         8.18233307284213   -1.41117393095945    7.92303624628848
C         5.67982863149975   -0.87624670141937    8.80810902147997
H         4.62572874751183   -0.62782746528183    8.74159549199623
H         5.99329134828934   -0.75167453947100    9.84118664366982
H         5.80570109607410   -1.92337126684127    8.53868673589545
C         6.98283790456532    2.86436069716994    3.45007983334503
C         7.22845032188935    1.60040561465665    2.83116396306759
C         6.02711116001795    1.16206550228868    2.21845138066946
C         5.03272261092909    2.14338257858223    2.45685639916537
C         5.60832281622224    3.19968419652100    3.21603205221415
C         8.10718512925705    3.79786258438251    3.82537236466704
H         7.74796796726826    4.81713785606596    3.93956009395701
H         8.84772032552822    3.80098875241998    3.02295820636854
H         8.61750902886072    3.50933231603433    4.74567354275062
C         8.61050658848591    1.03195598187704    2.65324903552355
H         9.19755820955942    1.11944094572266    3.56846023277936
H         9.13981894520796    1.58323011328920    1.87126591185908
H         8.58948011682286   -0.01409161199501    2.35576465584595
C         5.83670249307570    0.01061677941133    1.26733734426594
H         6.75903308667963   -0.54897984946264    1.12666551263108
H         5.53377869810602    0.39485352055543    0.29131078859718
H         5.05673850472289   -0.67626724916203    1.60456652748421
C         3.67298482385742    2.15047356967164    1.81794224749661
H         3.75197633221947    2.48619036715835    0.78014880582358
H         2.99600901314634    2.82177969950207    2.34152860690912
H         3.23167321688272    1.15330068163103    1.81691510043116
C         4.90154458260503    4.50061282923416    3.49213748894200
H         5.51283887425672    5.17624348672400    4.08498250413769
H         3.96369684882371    4.33039485508236    4.02670135379568
H         4.66316744170838    4.99848592769712    2.54977730996125

