72
CSD_code = ULOFAC | q = 0 | S = 0 | Stoichiometry = C21H38B10Cl2Zr | MND = 12
Zr       -7.55366114108803    1.38257107139526   10.44099715877455
Cl       -6.99927552851454   -0.24837257989941    8.85595632804398
Cl       -7.06632315603792   -0.03970679228388   12.24346845427565
C        -9.80854982044954    0.52164991356642   10.96119784384258
C        -9.76931448496467    0.65923258248431    9.54969527230399
C        -9.61677165950703    2.04179043900110    9.24299457505766
C        -9.63341007814738    2.77062775510644   10.46889872235724
C        -9.70183192574587    1.82389361014923   11.53223314664732
C       -10.07414575513307   -0.76177184927073   11.69549993116372
H       -11.12035692939932   -1.05331677338211   11.57383782205632
H        -9.86731147367571   -0.65155089858729   12.75828309868561
H        -9.45038774024771   -1.57062952980355   11.30700835035663
C       -10.05618126218120   -0.43341113948986    8.55997850302763
H        -9.59958651566102   -0.22429601508682    7.59332952178065
H       -11.13613260528537   -0.52290253922412    8.41507913944640
H        -9.68399587364994   -1.39416437064448    8.91572070647823
C        -9.55102463691840    2.58872490250072    7.84164589957278
H       -10.48988225395265    2.40925814138384    7.31412777876910
H        -8.75057477617242    2.09792203349315    7.27751210990002
H        -9.36568582994122    3.66149803635353    7.83807422847245
C        -9.88606237060277    4.24749573829892   10.62202112178251
H        -9.18985815501748    4.73806077619325   11.30116725885832
H       -10.89173895664206    4.39459565580164   11.02149115561965
H        -9.84221132351670    4.75489982254980    9.66114161106424
C        -9.75586922089179    2.13744175339829   13.00348186095265
H       -10.70229308797091    1.80408320841013   13.43266483690591
H        -9.66833596554391    3.20881342616219   13.17464422381719
H        -8.94707114699631    1.62894037858720   13.53786641375028
C        -5.10654597174146    2.17451592474176   10.22495431883896
C        -5.87169798608983    2.84891332940390    9.23843290877509
H        -5.67086786088466    2.86815343991714    8.17524991660072
C        -6.82329074352187    3.66852358928007    9.88528642456100
H        -7.41774520536723    4.42862181999268    9.39778378650929
C        -6.68727132726694    3.47348072378962   11.28249138111811
H        -7.16277697382599    4.04497610427132   12.07029825668382
C        -5.64228681075899    2.54291667793626   11.48498830429332
H        -5.25284718796819    2.27217955249006   12.45551811666827
C        -3.83506533961141    1.36363615767422    9.98371104365056
C        -3.93373132944087    0.09053766562455   10.84557757384712
H        -3.11446308923137   -0.59347242365336   10.63487002363978
H        -4.86708011038230   -0.42784777768979   10.60958733655998
H        -3.92446052297062    0.31789764385827   11.90849672871399
C        -3.83903408227180    0.89632777958525    8.51558827833391
H        -3.14307321158815    0.07909948353246    8.36244493366090
H        -3.60093606392827    1.69887825040024    7.82491778422622
H        -4.82499909718221    0.51359946986699    8.26332280388649
C        -2.59836910706140    2.24115345994865   10.35999879054615
C        -1.11237076710144    2.03622551018604    9.69625889590956
C        -0.79943487944665    0.95202433868477    8.68625380437141
H        -1.23422461260167    1.15463669514059    7.70931928766400
H        -1.12321882528111   -0.03221689152864    9.02209744335859
H         0.28046874131069    0.90117128600847    8.55222733172211
B        -1.30228465432361    1.59611587018261   11.32345453173983
H        -1.31349356234340    0.45113105600807   11.57492885656765
B         0.16189358408432    2.41714171365496   10.80344860053521
H         1.14479181298632    1.77696856052946   10.70742253397407
B        -0.27497597832915    3.52717877872766    9.51233346607615
H         0.42283816468506    3.62496539584295    8.56967722940684
B        -2.01411356508203    3.41996641019277    9.25134116897531
H        -2.48184806002789    3.45461127013503    8.17492391166102
B        -2.38636221823394    2.79734633149668   11.98426379698132
H        -3.16083306488802    2.47149149106790   12.80272573881600
B        -0.64078884491967    2.92045179791120   12.28964086566156
H        -0.18284547478900    2.71549499276640   13.35356910172151
B         0.01243635881465    4.13968146923906   11.15568108332214
H         0.95413795815830    4.79573159933658   11.41376279208193
B        -1.33988672979721    4.76769576881049   10.17857728740813
H        -1.37263840667179    5.86413960568654    9.75313890781933
B        -2.81146394247770    3.94170013354172   10.71590463647798
H        -3.88591042561719    4.40455832476922   10.64648016785626
B        -1.57993502330410    4.38233510504975   11.90555304584385
H        -1.79265188985184    5.21478575842052   12.70957972917637

