109
CSD_code = ULOGOS | q = 1 | S = 0 | Stoichiometry = C56H46AgN6(1+) | MND = 4
Ag       12.27443619486578    6.83820523306816   25.21388241697987
N        14.26871499385005    6.25053776496295   24.14480517522073
N        15.80879080426403    6.59044079417795   26.60504636148600
N        12.61142254065045    4.40881897076029   25.32914432016343
N        10.52435441997872    8.37887539177060   25.39241814156552
N         8.57226060274406    6.41066430854052   24.46764089230733
N        11.30673621882999    6.75989392901417   27.46733167307400
C        15.27191717472197    8.37686827457234   24.44706341939640
C        15.14923316309369    7.21734690597284   23.69380297593521
C        15.88599094434626    7.06350805040881   22.49711457651729
H        15.76254787203290    6.16021693703132   21.92024407445827
C        16.69395328985712    8.06348169300469   22.04978477348001
H        17.23614756337529    7.95513139511136   21.12205858759736
C        16.85562065338701    9.25360816120369   22.79286991691548
C        16.15574479586437    9.40469640038409   24.02054460342148
C        16.39667586093402   10.56516283652662   24.79078664982976
H        15.90590417418131   10.67430581174446   25.74589558348380
C        17.24382445835587   11.54074558888316   24.34374857761038
H        17.41732512084865   12.42096103949616   24.94399609900638
C        17.89948065501332   11.40703191863052   23.11106773618763
H        18.56087813660940   12.18957806694202   22.77225577975492
C        17.71309602776111   10.28224801897979   22.35589723144690
H        18.22910755978974   10.15990064284959   21.41496240497126
C        14.56155127822451    8.48285955729533   25.74092213382661
C        14.88845483166550    7.62307744858012   26.79374601421253
C        14.28801064492043    7.83633548894581   28.05800746478992
H        14.55969815002335    7.19398700603981   28.88101502586800
C        13.44810898942201    8.88667389564588   28.28072644615165
H        13.05857819791297    9.06866847850686   29.27270104037514
C        13.09131713483016    9.76549278232418   27.23885852864715
C        13.62887123999444    9.53895597756159   25.94333458557203
C        13.24467610337576   10.41130463169860   24.89725945720421
H        13.61839398944428   10.23097825232707   23.90021435807033
C        12.43232546766091   11.48227528748030   25.14065909074584
H        12.16554663017951   12.15147397831552   24.33649692648093
C        11.93786641326744   11.72596819421714   26.43196063744865
H        11.31316029319135   12.58909645002142   26.60899940138118
C        12.24457490674494   10.87140861036221   27.45334894840559
H        11.85722946288690   11.03809119670677   28.44876699484103
C        14.50325655821005    5.00692435002302   23.99804966254584
H        15.41364429828414    4.63295211317936   23.52409729586171
C        13.59376980738609    4.00239275832811   24.51439131269267
C        13.78293951396007    2.65516473650501   24.19512842276935
H        14.58810490095830    2.36659948349131   23.53700459097356
C        12.92440858386839    1.70974664355511   24.72377021592750
H        13.04392354997045    0.66286433806635   24.48926168651156
C        11.91108185571900    2.13752974258265   25.56930649932713
H        11.22464282760707    1.43571796801847   26.01498513540935
C        11.80226518839994    3.49438981325949   25.83712000096230
H        11.03369041572003    3.86312625899699   26.50318837723515
C        17.17717447177806    6.91612063979137   26.26026054376135
H        17.23633677478789    7.88860580070441   25.78289442433965
H        17.57251750610332    6.16343355047619   25.57437933303646
H        17.81235798875305    6.93427292112669   27.15525874512172
C        15.72021088746440    5.43411635702973   27.46412457436207
H        16.17618374580253    5.58556396505232   28.45222090254142
H        16.24728872831711    4.61234883787062   26.97663457940250
H        14.67564140383422    5.15107705130307   27.58240743420467
C        10.06450924776307    8.39628960022475   23.06739884531515
C        10.06197482634711    9.06489684562705   24.28390875104319
C         9.62539393899945   10.40744974638753   24.35814053873609
H         9.64639042257651   10.91155889648956   25.31175862833550
C         9.23946626172008   11.07169329822701   23.23441978351987
H         8.93134483981188   12.10538293334353   23.28857813691364
C         9.21500731059487   10.42329304200856   21.97993533572181
C         9.60807108148714    9.06009692559969   21.89673557649648
C         9.49320673151024    8.40436418241384   20.64981477329477
H         9.74602206480575    7.35733980913248   20.58044030769783
C         9.06138822153824    9.07688228988283   19.54055754562909
H         8.97807233837701    8.56141845346482   18.59582341249486
C         8.71626988095454   10.43414183718148   19.61790478605245
H         8.38259503750322   10.94993345071806   18.73064069096064
C         8.78600542738001   11.09027691226309   20.81571360866279
H         8.50304023506800   12.12995407679249   20.89045437890504
C        10.44037011686733    6.96567909647776   23.02380344103108
C         9.65445747468838    6.01374469026672   23.68009291034400
C         9.96210876078775    4.64242276752647   23.50918112916439
H         9.34056304044578    3.90318651114240   23.98980638171116
C        10.96487617359484    4.23434794925626   22.68078417636702
H        11.13378297007722    3.17984197913837   22.51232349367319
C        11.77988283465149    5.16839543393469   22.01109706077715
C        11.53549839269759    6.55334359112800   22.21333466739375
C        12.37503967277424    7.48418628627078   21.55637096188688
H        12.22264959913118    8.53955370594020   21.72737618413672
C        13.35090231586257    7.06358452152942   20.69795344149026
H        13.96911520957144    7.78643611134824   20.18709600683941
C        13.56043194248002    5.69425958162546   20.46897015517455
H        14.32353821393847    5.38157070802147   19.77150603340399
C        12.80405788165967    4.76763479468168   21.12989703959881
H        12.96587090200277    3.70999865344690   20.97529550388325
C        10.02035375941201    8.55186243329540   26.54961274854614
H         9.18915157096312    9.23678531423566   26.73207629273928
C        10.48588873462163    7.79360417754058   27.69482683680788
C        10.04300183387659    8.12015246827330   28.97932365202866
H         9.37792981481089    8.95802667784803   29.12194075953332
C        10.47357749627139    7.36463366781461   30.05367937439426
H        10.15129790785023    7.59780205452262   31.05722190305096
C        11.32142291914831    6.29378817691657   29.81032865405806
H        11.67463622059977    5.66929177631259   30.61508251972491
C        11.70337737102887    6.03727103533476   28.50153055410615
H        12.35371708950569    5.20364626998999   28.27209035850180
C         8.14498860650871    5.53242124473257   25.53017813876741
H         7.51492194804183    4.70098704818723   25.18540092695098
H         7.56034483495632    6.12177991065896   26.23843220972053
H         9.01855282289780    5.13977047647755   26.04774359918094
C         7.46246286349322    7.10453728596250   23.84777669135252
H         7.77652873060929    7.60403780515685   22.93731540188165
H         7.06393327178850    7.85110552022805   24.53848625174069
H         6.65594286969387    6.40451527639080   23.59407667924512

