69
CSD_code = ULOHUY | q = 0 | S = 0 | Stoichiometry = C34H25F3N3O2PPd | MND = 4
Pd        5.01002970208878    6.92883169821490    0.12466073337734
P         3.79816832576782    6.40552355982843   -1.69473248647167
N         6.14764446097306    7.41711670904947    1.63305181311294
C         6.76588632487185    6.21014148632070   -0.50876757590631
C         4.70988982088725    6.78224717920036   -3.23011294913001
C         2.23230664794265    7.29849672846842   -1.92934307341093
N         7.39471001549536    7.45672249416094    1.43625988668300
C         5.62863618486579    7.98249307625788    2.78950518040116
C         5.63264302660750    7.82485100867281   -3.13087044159507
H         5.74788023317316    8.34789250938002   -2.18222132610794
C         4.56416314353757    6.09422607484820   -4.42823243480973
H         3.86906340149036    5.27166421228062   -4.50391653549129
C         7.77831043745580    6.80406219978411    0.29236561157893
C         9.13701122945949    6.66134167874525   -0.00524687609743
H         9.86678034588425    7.14595204917277    0.62470482433013
C         2.18663883538085    8.49182357523393   -2.64379104059684
H         3.06821895398303    8.84609754656736   -3.15889423614186
C         5.58555630674170    9.66861853844641    4.49195034680651
H         5.99771341867450   10.56241564629893    4.93646213870796
C         8.53739337543279    5.28407150030384   -1.87038779638704
H         8.83540314800961    4.67309937726281   -2.71060189006745
F         6.97055346478003    7.83140938345254   -6.47866471691329
C         4.49917279011980    7.37766945899991    3.35129195461651
H         4.09229679199138    6.47761379616748    2.89269950922301
C         7.18746182571103    5.44465543942042   -1.58809669038405
H         6.45888441550784    4.94767483872956   -2.22099381919899
F        -1.22550904977474    9.49428734137350   -2.03658250284071
C         5.32677701643577    6.44725611671167   -5.52742486413974
H         5.23480269290138    5.92388044725611   -6.46620412737766
C        -0.08977703077288    8.76905545356915   -2.00249367072591
C         6.18469519051089    9.12084559338687    3.37430533801001
H         7.05446114014757    9.57027915761889    2.91932765529098
C         1.10487882329997    6.86039963521170   -1.23595686153741
H         1.15437240171281    5.95534422156410   -0.64691110456133
C        -0.06603885834190    7.59122703257614   -1.27448278870688
H        -0.94478852536851    7.26959917370133   -0.73842617597483
C         6.22745649355992    7.49112303317350   -5.40872405219112
C         1.01945922816224    9.23208046129302   -2.68833183226279
H         0.96242650664412   10.15910288982195   -3.23729892307398
C         3.92276523901894    7.92735825154247    4.47793429870842
H         3.04756972777031    7.46559891509888    4.90875203062149
C         9.50921570077744    5.90387412080185   -1.09452698565982
H        10.55343456514175    5.78352283826687   -1.34128735627958
C         6.39346925666940    8.18993161440016   -4.22436752626890
H         7.11134151194084    8.99286095921073   -4.17026453628433
C         4.45684244480380    9.07848412583721    5.04098499334880
H         3.99138211701186    9.51690248028869    5.91127407030498
N         3.31577682008774    8.02433188770661    0.83154645613426
O         1.55983994441988    7.05755256195564    1.92036894710267
F         2.32495100241134    0.68830984960082   -1.88861042303712
O         4.67594903791380    9.44567313624624   -0.28043691044102
C         2.33503817100049    4.19988414564371   -2.70417402253796
H         1.82980460464834    4.89268654858272   -3.36256888392750
C         3.29494753135637    4.66377373570057   -1.80864065239386
C         3.65597100237293    9.23804489686556    0.37769191808734
C         2.11630174812896    8.03409757351502    1.46846892935691
C         3.90066337257799    3.78057225480721   -0.91806588375988
H         4.62105490310507    4.17180582400124   -0.19844476157844
C         2.64178320501729    1.99511468242198   -1.85530711019491
C         3.58034025707099    2.43619242400173   -0.93791600526121
H         4.03615759482932    1.73439676508846   -0.25749812493594
C         2.00667583504829    2.85768308111300   -2.73400075389706
H         1.26672668603176    2.47376843449861   -3.41867547803011
C         2.62060665375662   10.28296422589950    0.76404277569824
H         2.23040395044573   10.76034700471602   -0.13506540402661
H         3.09138047776873   11.05234490558709    1.37652642977348
C         1.57737967714874    9.46829467183549    1.51542678638278
H         0.59074087694162    9.49916881626798    1.05366763403345
H         1.46945342881628    9.76766694597717    2.55829134891109

