42
CSD_code = ULONOY | q = 0 | S = 0 | Stoichiometry = C19H18Cl3PTi | MND = 9
Ti        0.67655079642886    1.53012156763570   18.92198143961180
Cl        0.00163278978756    1.39928223861829   21.07012378181750
Cl        0.06958057975387   -0.56655180661304   18.70751698067420
Cl        2.66777976768902    0.92154931539201   18.01985507888305
P         2.38102776011013    2.92942380328889   20.07180983585478
C         0.73560188415938    3.65771129324155   17.84363298407772
C        -0.33724086987850    3.64833127308305   18.77221757098128
C        -1.25343250070196    2.65007078594196   18.38278241479003
C        -0.75363362228555    2.03688978840268   17.20783226993223
C         0.46840149812081    2.66306644771569   16.87721021668389
C         1.91965067459713    4.58467547965023   17.88437164307106
C         3.07417550460589    4.03636414549061   18.75795358694335
C         3.78398781136870    1.97691770402297   20.72716647412232
C         5.01200574821564    2.57433969843697   20.98874979961252
C         6.04412778260307    1.81953453183627   21.51708608145849
C         5.85037061794364    0.47666638604678   21.79651521673388
C         4.62171635359202   -0.11676458148026   21.55195290970372
C         3.58607736525717    0.62905360900477   21.01825511828534
C         2.06364074776022    4.03169399229992   21.48941569311021
C         1.99116727255469    3.43928452253116   22.74978196817484
C         1.71001562346268    4.20464405721745   23.86456608968607
C         1.49066268760325    5.56728471520608   23.73538339507403
C         1.55075205149825    6.15972136203572   22.48570484195952
C         1.83007540443663    5.39712408271722   21.36494144331023
H        -0.47443900382556    4.34639987636850   19.58971095676509
H        -2.21488956943738    2.45452979861398   18.84290890718514
H        -1.27421489495367    1.30449712617182   16.60294928054938
H         1.05837732253484    2.47093570213815   15.98982590825822
H         1.58449480912840    5.55034281239257   18.27321961565507
H         2.28985253265173    4.74664396641600   16.86846790883068
H         3.66806517349204    4.84799726194364   19.18740964214110
H         3.72876446183570    3.40025870651037   18.15451478449464
H         5.15709939134130    3.62476447448497   20.77840057492902
H         7.00144955249757    2.28004401359586   21.71204085553142
H         6.65930692978705   -0.10937184554728   22.20665988485942
H         4.47295044624346   -1.16287156299351   21.77401105488221
H         2.61883510443610    0.16829688810268   20.81379679732061
H         2.14903800073155    2.37344249633102   22.84363354030869
H         1.65674049486197    3.73841744439577   24.83692653503216
H         1.26843466041897    6.16551299439922   24.60631361802127
H         1.37515843516545    7.22062102032638   22.38090187235806
H         1.86658242441017    5.87470441462674   20.39710142832472

