78
CSD_code = ULONEQ | q = 0 | S = 0 | Stoichiometry = C34H38N4OPd | MND = 4
Pd        8.38379115534130   14.54716144233148    2.40792964202929
N         9.07103321932110   15.82694247520370    3.79141934392964
N         7.76884315992098   13.36546263635088    0.84660641471078
N         6.51950973766699   15.57998327076935    1.68788320689679
C         9.60768298844620   13.34868803799587    3.42633517116609
C         9.96862071598551   13.89994693862308    4.74776999534936
C         9.71189413780090   15.28239955647819    4.88151702308283
C        10.11729326521178   15.95334517664603    6.03308108934401
H         9.93475416892044   17.01240716891306    6.14158582888604
C        10.72466302165360   15.23991978806301    7.05112560790052
H        11.02382239727729   15.75442079117022    7.95319685230403
C        10.94536646190646   13.87444025654812    6.93625508422539
H        11.41004761033424   13.33519245547040    7.74828433674894
C        10.57934255512962   13.20190186196000    5.78286289144061
H        10.76322134253552   12.14161043001848    5.68876894406780
C         9.31067914029857   17.00887371475073    3.24410358657232
H         9.87532411425158   17.75729203244045    3.83812766119782
O         8.92991640316798   17.26389752831572    2.10223589592384
N        10.03731444383034   12.28235470877249    2.90913860602435
C        11.04466749157374   11.41112265366403    3.26157964277394
C        12.38550719648748   11.82474314866351    3.21671049284445
C        13.37612864561532   10.88293072506890    3.44271127250503
H        14.41106492479425   11.19417445741726    3.41446008916656
C        13.06255601868171    9.56145218991651    3.70824411022732
H        13.84937568163378    8.84376805694306    3.88771976034761
C        11.73723052383293    9.16137090608216    3.73893391892399
H        11.48957602695045    8.12899154416467    3.94333535434114
C        10.71938479333535   10.06888932855394    3.50566764528851
C         9.27471900710076    9.66987264806228    3.54855121924280
H         9.17065359940623    8.58775468734725    3.57069146037531
H         8.74797529816845   10.06675316568299    2.68101941344710
H         8.79373947053226   10.08454494463282    4.43549368950344
C        12.73203187235916   13.25788176196677    2.94136776736410
H        13.72327701340708   13.33360505660654    2.49978651888079
H        12.72651537520646   13.83200305943855    3.86959732717185
H        12.00536306051746   13.71637490030121    2.26765912756874
C         8.54071286825779   12.41987372690527    0.31519861232528
H         9.36470460886661   12.08229821143035    0.93935069747870
C         8.31017346227064   11.86892122087582   -0.92946953875821
H         8.97907108458226   11.10374554564844   -1.28852285406106
C         7.23307579820440   12.30631533896736   -1.70250378237730
C         6.43745487514008   13.29424795526097   -1.13908933535511
H         5.60398444581729   13.70287685449282   -1.68365700052287
C         6.71759905443253   13.80120688697057    0.12797046871673
C         5.90060510871556   14.86208879494974    0.73962103153737
C         4.58167090842072   15.11470177968234    0.37845936264707
H         4.10741757833788   14.49122240688965   -0.36220194647096
C         3.87023036638950   16.14714339179332    0.98321319008227
C         4.54346281100498   16.88093848197267    1.95613872107986
H         4.07113496972539   17.70021307279331    2.47031074907676
C         5.85232252669187   16.55751535837395    2.27804301981143
H         6.39491653691249   17.12183805612940    3.02642160850824
C         6.98386091990801   11.71496958709699   -3.07629351140719
C         5.74557304441020   12.30617632717901   -3.75471940903481
H         4.84888102930231   12.11546016041916   -3.16889265702361
H         5.61219417510076   11.84241472455404   -4.72946816679690
H         5.85493271630129   13.37748234307780   -3.90753449309759
C         8.20633281898072   11.99814735028690   -3.96060249332102
H         8.37021222407220   13.07028421058694   -4.04665531586919
H         8.04593817326893   11.59270023177511   -4.95687241863844
H         9.10541301194281   11.54759949671173   -3.54977297997311
C         6.78213600758495   10.19964389065313   -2.93345258926581
H         7.66216743244161    9.71884491132799   -2.51613580475155
H         6.58399485719787    9.75882233264112   -3.90762572380361
H         5.93620322961670    9.98983323492386   -2.28191529655636
C         2.43386588325889   16.41687752350928    0.57421861500444
C         1.83048520938296   17.60971683311065    1.31930360148760
H         0.80757943546480   17.76587197369760    0.98375395236144
H         2.39151344725987   18.51977410894425    1.11983577983931
H         1.80682884899587   17.43131397398686    2.39184528221783
C         2.39205148561394   16.71543361351179   -0.93123521645813
H         2.73639615675305   15.86744356754846   -1.51699405923880
H         3.02258736351907   17.57102793053044   -1.16380976036121
H         1.37366313851130   16.94523928399043   -1.23579955110281
C         1.59062108709022   15.17193115827110    0.88498575429546
H         1.94205324731311   14.30397361315536    0.33341989400368
H         0.55254519288995   15.34957422155772    0.61390450035600
H         1.63474682151842   14.94172280844081    1.94747307173314

