60
CSD_code = ULONAM | q = 1 | S = 0 | Stoichiometry = C25H30N3OPd(1+) | MND = 4
Pd       11.98969900544353   15.12081455841394   13.60074576329574
N        14.13575940422255   12.70450373433084   14.17548139645002
H        14.83344098024092   12.04811302156589   14.50323254751842
N         9.91484150239733   15.46640343084675   13.97943005669658
N        11.94383986801333   17.09583587544277   13.45198984356322
O        11.88775349902557   13.14941065674125   14.14240854566536
C        14.62191090833076   13.68746658351589   13.27926976227928
C        13.84685965888225   14.78239876523726   12.87254291706317
C        14.38144119459590   15.58419067651556   11.85712006629362
H        13.79377881854010   16.40091203920134   11.44951134344380
C        15.64538279166089   15.36217488545125   11.33448905083846
H        16.02342756628142   16.00213184370810   10.55226404641565
C        16.42387296674821   14.32342764630668   11.81823871229610
H        17.41725520160637   14.15816657049441   11.43266148064720
C        15.90809630759085   13.48008189785624   12.77995415190076
H        16.48981247898486   12.64121431462647   13.13501083932010
C        12.86414246378905   12.47945118461455   14.48481784072098
H        12.70071957109014   11.58368043891618   15.09946955263497
C         8.95687877456203   14.55830115779687   14.13055304423145
H         9.27074655960949   13.58587113501133   14.49322492959593
C         7.62860463967395   14.82522073022427   13.85605435394171
H         6.89918351954395   14.04693815315835   14.00741745940410
C         7.24945074232148   16.08193994151339   13.37974376107888
C         8.26580026128403   17.02078263384750   13.22453105236302
H         8.04551313324852   18.00138095838224   12.84069644640729
C         9.58117852600222   16.69172325746994   13.53505821710101
C        10.70801320380689   17.63912170065650   13.45434312554677
C        10.51952607519351   19.01727322800384   13.46354705546447
H         9.51464153482070   19.40117932784956   13.47407669975761
C        11.60237695123546   19.88920558939404   13.49040206293105
C        12.86480558583223   19.29441145759374   13.54220966260456
H        13.75841565713013   19.89324523143134   13.59897650499035
C        12.99060778249205   17.92047857662851   13.52214105661351
H        13.97125604859538   17.46164496005828   13.56041475607356
C         5.79941124720697   16.36969299723049   13.05342871801682
C         5.34586734015130   15.39753515487062   11.95406589215029
H         4.31080090368470   15.59924155960900   11.69210257122905
H         5.41667389462298   14.36337629376122   12.27885414433423
H         5.95551396333739   15.52055986868513   11.06134847217532
C         4.95730713135217   16.15628453636256   14.31999537153596
H         5.29340342611342   16.81592864706996   15.11727538307398
H         5.01581717303644   15.13113010578932   14.67405414024282
H         3.91543905149946   16.38000453250493   14.10743545528239
C         5.58042273197766   17.80144612564169   12.55919313462841
H         4.52512716670390   17.94742698608317   12.34416097586537
H         6.13343268971169   17.99287757700514   11.64223606586401
H         5.86734683880287   18.52879574940694   13.31559976552352
C        11.46036634006895   21.39525520567905   13.48817324151530
C        10.00001002037278   21.84705716191192   13.41751086847286
H         9.51982152605902   21.48881798142691   12.50959926355572
H         9.96201149889010   22.93308256332040   13.40537754764581
H         9.43833570420912   21.50692251013029   14.28468444075936
C        12.20585452087037   21.95359325201688   12.26661511447464
H        13.26538003767156   21.71664179353466   12.30024551969747
H        12.10212850197812   23.03480654030584   12.23886117082241
H        11.79012579440217   21.54587953442566   11.34760149278863
C        12.08391097536879   21.94836961017666   14.77839706234693
H        11.58599935835197   21.53173558878257   15.65136883908404
H        11.97192002957493   23.02879911265028   14.80350243467566
H        13.14313895100365   21.71684284865739   14.84328480906882

