80
CSD_code = ULONIT | q = 0 | S = 0 | Stoichiometry = C25H40CoN5O7P2 | MND = 6
Co       -2.01433401678296   -0.08442037608654   16.02064333344658
P         1.32481479484305   -3.94089999702368   12.71530515653615
P        -4.66369100705119    3.79155960740501   15.55327064234374
O        -3.04847538666080   -1.40588075090046   16.88953966033152
O         2.22318665174149   -4.68545444359800   11.78149647029057
O         1.43943492969250   -4.17814979600953   14.19932474063717
O         0.87817044584694   -2.54880869774468   12.32113360240858
O        -5.21691553078727    4.66719122437685   14.50133317618510
O        -3.28279789163402    3.22128515004094   15.31874151053482
O        -5.75030433256653    2.57674983289456   15.93137687134280
N        -1.30800047694778   -1.29993626215729   14.57619630309823
N        -2.00172167538054    1.38778530584130   17.68864708969312
N        -0.51409723170357   -0.74560364061740   17.14141610896268
H         0.34941910513186   -0.21276756758248   17.03299701036615
N        -1.07175864868526    1.35217757596926   15.12479978625547
H        -1.84800160082465    1.96900497916660   14.82891793187681
N        -3.63445785462297    0.35013389224378   15.11223138064965
C        -4.32400231024351   -1.15142788933728   16.77141021954910
C        -5.34455640859627   -1.79831152919763   17.47239357929584
H        -5.09810104965050   -2.59553791391940   18.15636573799378
C        -6.65347291706231   -1.39354474468610   17.28807958613864
H        -7.43894935319952   -1.89584623643719   17.83245541249913
C        -6.98304862225916   -0.33190137147576   16.44602123581161
H        -8.00639182701388    0.00024277849501   16.36832091765937
C        -5.99945687588679    0.30804871858495   15.71989654789984
C        -4.67546532315348   -0.12956228661095   15.85278406530605
C        -3.96852371522856    1.08698126801226   14.01786535987238
H        -3.20432119505772    1.23060388053631   13.26759704703288
C        -5.20082141878651    1.60577165903897   13.82177752301384
H        -5.44701744935046    2.14552480869385   12.92497632934886
C        -6.15029669546705    1.60218084103787   14.97052855686497
H        -7.18192977383074    1.81002857188628   14.66669137670881
C        -0.91852772361170   -0.43031125984388   13.44598137945035
H        -1.80421858326256   -0.22879847133176   12.84496915575440
H        -0.17790396337134   -0.95925720147718   12.82633432593511
C        -0.09432419096837   -1.92915046994714   15.13553538446914
H         0.15549306081984   -2.87864099571334   14.64442996455395
H         0.76207528314722   -1.28134833867981   14.94388301346628
C        -0.23942628250222   -2.09709338157945   16.63428665745375
H        -1.08618746844859   -2.73664686975567   16.88348199477655
H         0.67101296763750   -2.52579843715146   17.06441429226889
C        -0.90421826041305   -0.66512280638883   18.54951940472849
H        -0.09536336425490   -0.99414427935108   19.21267417720699
H        -1.76598822375775   -1.31776600375540   18.69253202689337
C        -1.28591262028235    0.78938097058899   18.83918728854266
H        -0.37511800282020    1.36267107977945   19.03700427450545
H        -1.90633531649847    0.83542614788901   19.73614822772230
C        -1.27787511513541    2.56726029148577   17.16533813056577
H        -0.75763560262296    3.10876147748468   17.96070438989030
H        -2.02513978357521    3.21964084199620   16.70183612872461
C        -0.30956556001218    2.18926909402087   16.05107231840006
H         0.04100922118694    3.10276933468339   15.55644576209954
H         0.57305466417237    1.65252723265184   16.41683236361819
C        -0.31114935556587    0.87675572175446   13.95961719092669
H         0.72577041856950    0.71281870927253   14.26655076816550
H        -0.29866577346161    1.61917541367230   13.15627247395028
C        -3.39329960820724    1.75475757006125   18.01132400314383
H        -3.88229934868177    0.88134044978570   18.44723515609692
H        -3.88130440687922    1.97687732776359   17.06746126894239
C        -3.61015083996537    2.97995511964677   18.91015655349115
H        -3.70083420421129    2.67524015878493   19.95625145161716
H        -2.77148522110687    3.67238792175873   18.84257438062045
C        -4.88680832771847    3.72380471237078   18.49736530716730
H        -5.69336199792001    3.00319698159520   18.35865077663984
H        -5.17034664322091    4.38899076672570   19.31912222126592
C        -4.76384821644155    4.58103468546998   17.23926778057954
H        -3.89109729686717    5.23723466845752   17.29729436544417
H        -5.64205776745269    5.22086809694049   17.16233479606910
C        -2.30084123133330   -2.31390465622246   14.15359437149048
H        -3.21987015401375   -1.77609266909015   13.91431761528327
H        -2.50539198317047   -2.94855428250608   15.01689731774416
C        -1.90939822426265   -3.18058102008302   12.94545583300088
H        -2.78441609004851   -3.28413324592914   12.30252220618889
H        -1.14021312246100   -2.67732436690072   12.36425087016758
C        -1.36771995118644   -4.57453338615498   13.28042989487297
H        -2.17602909131755   -5.31475174529210   13.21491428540685
H        -0.98039734053837   -4.62369387392416   14.29944435191343
C        -0.28677635641787   -5.00446573220999   12.33843910714396
H        -0.46797720914302   -4.79879004710415   11.29087714498254
H         0.08254886872220   -6.00795782514746   12.50453357674366

