73
CSD_code = ULOPAO | q = 0 | S = 0 | Stoichiometry = C25H41Cl2N3OTi | MND = 4
Ti        9.93425168123098    5.77232301139670    6.17020970594612
Cl        8.10772004133712    6.89298950979187    6.61818165760810
Cl       10.79030057481934    6.89106368512278    4.49367875679221
O        11.01961886406516    5.60640429611661    7.44869148366163
N         9.43911103554636    4.18019852706122    5.59905410467628
N        10.56735450272562    2.12626130610327    5.18662080740639
N         8.93564266340995    2.12633497613651    6.69030805560483
C        12.07958184603141    7.57006476000163    9.28691879457416
C        10.56752138744938    7.77480048150223    9.47686721744827
H         9.99008527181987    7.27846261276557    8.69223038744510
H        10.33025474870943    8.83661178159128    9.45075380148916
H        10.25325617425237    7.37413158522218   10.43969223047679
C        12.52595742861442    8.11957832562791    7.92246972006229
H        11.99569375580773    7.63690212435537    7.09688281187659
H        13.59422932860350    7.95880536454728    7.78395636960112
H        12.32824325128650    9.18865653215106    7.87143788026756
C        12.80008961916340    8.38013204063254   10.37088814088717
H        12.54185280745205    9.43156425458901   10.26336654001283
H        13.88000529187513    8.28977248910369   10.27771298517690
H        12.49683401455560    8.06284791563955   11.36592795509657
C        14.41344749456574    3.69247653221490   11.55462697637955
C        13.81403738557551    4.07514211681258   12.91507823230915
H        14.45126371363704    3.71507516510468   13.72007244737166
H        12.82790088119348    3.63020254101957   13.02945163277938
H        13.71520488036749    5.15194709739810   13.01659755566126
C        15.78862113910540    4.35424044433890   11.38881891223127
H        16.46730214323455    4.00997727816406   12.16633560184471
H        15.71878403627809    5.43594573542028   11.45362909883375
H        16.21346433741948    4.09806700976925   10.42096976218661
C        14.61146364965350    2.17428207696989   11.53327937640083
H        15.27894224840709    1.88448654196611   12.34229741066257
H        15.05984935426814    1.85189596217458   10.59661152593036
H        13.66701626088227    1.65428402995231   11.67502227237120
C        11.81379679861764    5.19045670605840    8.43337306985899
C        12.38766575239935    6.07912321021265    9.36532926577649
C        13.21026273670592    5.53618149370466   10.33887010393018
H        13.66224113483397    6.20089599130500   11.05477653522987
C        13.48925483507154    4.17522351593908   10.44649505951695
C        12.89889162717301    3.32226266613264    9.52517645550019
H        13.06805363586224    2.25843484269956    9.56016524300510
C        12.07588122794432    3.82366781241808    8.53623962335347
H        11.60735026686118    3.16638896194533    7.81209036308588
C        11.53524285703435    2.59709281833909    4.19467715276241
C        10.78657263871749    3.30417544170381    3.05973525205755
H        11.49142899599117    3.63778417812610    2.30326350226134
H        10.25043369858605    4.17318002909729    3.44604106502098
H        10.07115766715087    2.62526436722781    2.60010420235966
C        12.51625564697485    3.56499828293570    4.87142464859375
H        13.22185867858112    3.94487018777827    4.13697303154133
H        13.07085661277262    3.05685121313377    5.65917709061310
H        11.97551509505635    4.41614582311623    5.30621488351428
C        12.31335552442104    1.41171829903795    3.61825969019578
H        12.99376850088532    1.77656571529938    2.85372074366207
H        11.64135587267858    0.69124724786503    3.15812633311787
H        12.90431260964827    0.91575289005966    4.38448844941687
C         7.85898142978338    2.59407268736160    7.56399884147557
C         6.77891798380125    3.26658190544557    6.70966888931903
H         5.97240844497993    3.62117046327032    7.34530940550874
H         6.37421107706899    2.56034045218078    5.98768941709119
H         7.20062518892278    4.11847762255626    6.17264989397378
C         8.43203774592324    3.59385324960525    8.57868520242640
H         7.64439132684464    3.92772020425822    9.24955460546153
H         8.84146521439354    4.46993010483575    8.05837993258591
H         9.22222816388358    3.12952018565114    9.16760757135312
C         7.24358437197453    1.41147025431350    8.31583584392743
H         6.42187701861358    1.77386654615805    8.92740323522583
H         7.97050208798595    0.94076973627701    8.97335390779643
H         6.84919849236422    0.67109122364648    7.62402859000227
C         9.63753963091959    2.93779022645203    5.81443178618551
C         9.44825456189981    0.85067429373573    6.60249301868603
H         9.07875059192879    0.03277356552396    7.18229601353182
C        10.43856173012124    0.85081754988270    5.69106920817770
H        11.04695071117717    0.03326992404772    5.36988266198887

