71
CSD_code = ULOPUI | q = 0 | S = 0 | Stoichiometry = C27H40MoN2O | MND = 10
Mo        1.69571906635254    8.17089686552358    4.22096764392555
C         3.45648831878147    8.53020882053191    4.88770923699083
O         4.54814903347510    8.68152060096303    5.23476361514148
C         1.72731262462871   10.36758242528214    4.55361523171559
H         2.59867583495109   10.86131218092027    4.97941963242388
H         1.27720532077982   11.00981030483982    3.79336891727842
C         0.82823493893841    9.76302229056205    5.50478417246697
H        -0.23190072455056    9.89848537937474    5.28737855421776
C         1.06546976477928    9.82761686257998    6.94832054229593
C        -0.03226143810427    9.82639174611171    7.81693608809366
H        -1.03098240898436    9.78833795581830    7.40220762040029
C         0.12486956265379    9.88229430098627    9.18845267387701
H        -0.74582266577022    9.87565352641446    9.82962160279670
C         1.39206647962241    9.95254560312302    9.74130731439924
H         1.52059033740837    9.99573266571551   10.81291820915177
C         2.49225937019058    9.97991949274700    8.89933084590210
H         3.48665817192738   10.04863247315673    9.31765671647474
C         2.33376789041279    9.92272602452201    7.52818425960920
H         3.21137082407256    9.95214732391359    6.90408794454203
C         1.06485483091640    9.03483504931808    1.82506871166979
C         0.77214647454986    9.56501040694872    0.44057453501288
H         1.09827616276186    8.84214127736034   -0.30738435590222
H         1.32254616660634   10.49133460920197    0.27909369403106
H        -0.28187070857208    9.75719452140481    0.29148394155456
N         0.20498413794093    8.83059556361150    2.80500614276438
C        -1.20359409280300    9.15275840102157    2.75971406476160
H        -1.60501512875274    8.78877218475620    3.71458176860494
C        -1.48011692360211   10.66551620192470    2.71552187810350
H        -1.05787128726956   11.15687706289442    3.58875202098256
H        -2.55486497579761   10.83671788340375    2.71114666357114
H        -1.05094592730481   11.12434115470550    1.82865523125565
C        -1.97854455611307    8.43744643924535    1.62970703409561
H        -2.20840133724331    9.11416104570404    0.80960718598636
H        -2.92213477347736    8.04862746412619    2.00599696255118
H        -1.39926248337361    7.60662936841683    1.23363243102983
N         2.27034734594911    8.69680376909500    2.21728881307366
C         3.45699197642557    8.96187212649714    1.44839910679506
H         3.21387775414021    8.98564984933892    0.37533671151588
C         4.04455620321490   10.32274546198372    1.84478442116503
H         3.30465748647534   11.11027923158838    1.71746924477305
H         4.91358032059980   10.55374812379496    1.23352860716894
H         4.34139712710197   10.29900730690965    2.89011225376351
C         4.49143464979687    7.86181341107513    1.66995151614856
H         4.73517093634474    7.79553375335488    2.72506171552256
H         5.39781399039755    8.08217335173140    1.11119427964524
H         4.10155333746653    6.90483512064901    1.33242102592753
C         0.24756879244339    6.26407856996181    4.32851716873170
C         1.44859161496381    5.96026893441620    3.62640465192164
C         2.53678807411416    6.09728837023753    4.54129400311254
C         1.98826069608440    6.54903188097815    5.80466987009389
C         0.57308388542102    6.63048194724483    5.65501646034236
C        -1.13006535935410    5.92354018524007    3.85759525924512
H        -1.19455693183100    5.92415322725454    2.77332917204038
H        -1.87620256149998    6.60863075793705    4.25380286871158
H        -1.38183655810481    4.91981495092983    4.21071154869100
C         1.49509912316958    5.31190255031075    2.27437217690398
H         1.13822415765940    4.28051918810770    2.33812464898036
H         2.51020871713031    5.29623272026468    1.88339676250609
H         0.86679422974429    5.84572260487474    1.56014798360120
C         3.89412281582937    5.47458900752870    4.39588961936371
H         3.88370231917138    4.47585413260178    4.83993429343591
H         4.65846343216807    6.05814823932746    4.90612036494219
H         4.18052385505140    5.37885877306924    3.35154879788511
C         2.70389917251042    6.48809699768966    7.12122664883670
H         2.28034085544515    7.19698764337378    7.83005401168439
H         3.76173587739534    6.71523511625221    7.00756980429766
H         2.61492492779979    5.48354803990458    7.54285789085242
C        -0.41754837509687    6.75480962545347    6.76927315196189
H        -0.68805327359316    5.75702605997090    7.12433492239233
H        -1.32804715475559    7.25117619198034    6.43961679782464
H        -0.00555933981357    7.31384730193903    7.60515469435100

