100
CSD_code = ULOQOC | q = 1 | S = 0 | Stoichiometry = C45H51AuN2P(1+) | MND = 2
Au        2.92028546803466    2.88885423533043   13.44446602128225
C         2.49507490228293    4.35641737780016   14.78365621551127
N         2.85060796618782    5.64769100902125   14.81536427068972
C         2.30947700800721    6.26358589022245   15.91102868913447
H         2.47278042646018    7.29983413966804   16.12168086838632
C         1.59677367720829    5.32044989311011   16.57646692302451
H         1.02208536655885    5.37925702058025   17.47703565701850
N         1.72601976406225    4.15955192486392   15.86535399268408
C         3.67941086730559    6.25240052522118   13.82805953704907
C         3.08143371523474    6.80484067702774   12.69391645199311
C         3.91236220261782    7.34229353839573   11.71983887372699
H         3.48289264102227    7.77220516333239   10.82930795597062
C         5.28535752198747    7.33063332124896   11.87570867124857
H         5.91588227274402    7.75184476220719   11.10783545052574
C         5.85527202892028    6.78329549332528   13.00929789275080
H         6.92814801438768    6.78131754464535   13.11653884874833
C         5.06348635182558    6.23474304680877   14.00960904739512
C         1.58206802990327    6.79769375645620   12.50677980417355
H         1.10381706611796    6.46861443730118   13.43538250752138
C         1.05079356614949    8.19581636861258   12.18646803163974
H         1.37772507434203    8.91027305147822   12.93850999195002
H        -0.03633496668492    8.18372582390384   12.17262660747730
H         1.39679483406515    8.53688654094566   11.21526600640937
C         1.20281415918265    5.80362251652998   11.40573149285367
H         1.54113869464066    4.80079890562137   11.66795071190105
H         1.65860159986702    6.08613732360194   10.46033934711301
H         0.12357917907166    5.78166541676614   11.27621597686426
C         5.69430880968593    5.61829908480620   15.23653253812591
H         4.91042300659597    5.36494403815611   15.95787801440273
C         6.65219155384732    6.59512490627085   15.92087440235093
H         6.15083349459255    7.53680975788179   16.13264789726325
H         7.51839075572796    6.79979557426463   15.29868362422509
H         7.00264131418924    6.17282387499516   16.85947204712571
C         6.41602081193913    4.32283941601395   14.85571635092088
H         5.71376123997326    3.60768875904575   14.42693307192321
H         6.86875299932423    3.87408883713637   15.73623685023282
H         7.19930607908599    4.51816554573890   14.12799030918851
C         1.15169096836130    2.89769691028080   16.19011466817704
C         1.85430596593941    2.03494478528269   17.03428474708364
C         1.27948114590373    0.80704069772386   17.33433058856433
H         1.79750958632347    0.12307675762802   17.98732182321276
C         0.05345041758507    0.45107239432901   16.80557532281322
H        -0.38459571239662   -0.50341254802341   17.05505641261105
C        -0.61254666408729    1.30872437969553   15.95092774767649
H        -1.56167294846751    1.01198434366753   15.53386325414090
C        -0.07544743129481    2.54678855606440   15.62260327348947
C         3.22002755609019    2.38873101803198   17.57297937042969
H         3.46051438336301    3.42195287483020   17.30252663198982
C         3.26691136612894    2.28601948109453   19.09817019233605
H         2.48814668240022    2.89860720281124   19.54692508804223
H         4.23062871331706    2.63268396349883   19.46281869855106
H         3.12977263773959    1.26058783783443   19.42847303027863
C         4.27208683461582    1.48017401421925   16.92961321959656
H         4.24573798659292    1.57291440976791   15.84361583378659
H         4.09335070898921    0.43892036428628   17.18432023498922
H         5.26501829361731    1.75407683615941   17.27669395094560
C        -0.80414310118400    3.46174145457285   14.66668764212039
H        -0.22337471618889    4.37966773215653   14.52980469619711
C        -2.17313140114273    3.85270447691594   15.22717736836030
H        -2.06716221255430    4.31700672890485   16.20519438679316
H        -2.81600785739611    2.98312078661098   15.32936757443864
H        -2.65969808868505    4.56039734812569   14.56065896243810
C        -0.94433321088479    2.79408303490646   13.29573080931052
H         0.03384584137485    2.51749443842430   12.90068409247810
H        -1.41564847211391    3.47789019761089   12.59447112087831
H        -1.55302467871143    1.89629734521552   13.35738755957395
P         3.24917985878378    1.10493165459205   12.09979455471010
C         3.51000585896593   -0.38511005440497   13.09621692294172
C         2.61608104311927   -0.57897773815693   14.14923377089147
H         1.81290435736688    0.13185582830521   14.30747873299191
C         2.75561562371139   -1.67301130086190   14.97974886451910
H         2.05637707322130   -1.82511136040983   15.78778849798679
C         3.79526739804650   -2.56798098079875   14.77451851757162
H         3.90740953876494   -3.42126466872417   15.42566435164844
C         4.69317519175896   -2.36702970652464   13.73931929493260
H         5.50478943709475   -3.06172419196057   13.58554304614364
C         4.55718574090137   -1.27600374237466   12.89751922470933
H         5.26154742663761   -1.11672978896395   12.09331258561063
C         1.81734426201533    0.72066297683699   11.05467418829256
C         1.11882840979466   -0.47889636925466   11.10855559426595
H         1.43440870536484   -1.26293286997620   11.78260774054336
C         0.01806695323667   -0.66319303755289   10.28917034883746
H        -0.52321378771940   -1.59649096393966   10.32540448379639
C        -0.38736055417323    0.34071762941567    9.42562369116840
H        -1.24611087154528    0.18928386180970    8.78998043102782
C         0.30716836856865    1.54022451430411    9.37473943413260
H        -0.00897317106572    2.32237028016331    8.70147595186382
C         1.40475583027439    1.73305843952331   10.18981527433569
H         1.95790427761700    2.66438480416373   10.16111109262314
C         4.61683022614474    1.16994837067230   10.91662685517953
C         4.69300162225275    0.26490464584766    9.85991353266815
H         3.92116849512895   -0.48313836771715    9.73640362426283
C         5.75383992480887    0.33500375114247    8.97711461839311
H         5.81792333834381   -0.36552782696459    8.15840583166731
C         6.73286595001090    1.30401004189823    9.14031030965842
H         7.55808490225743    1.35481269535714    8.44681021734707
C         6.65270370414302    2.20969243144982   10.18564460651320
H         7.41259255126214    2.96670369053925   10.30647224298018
C         5.59465203589461    2.14631604838782   11.07447000609536
H         5.51651018933870    2.85402398340649   11.89085230763881

