113
CSD_code = ULOQES | q = 1 | S = 0 | Stoichiometry = C48H60AuN4(1+) | MND = 2
Au       14.05514466921436    6.02521369188248   12.12205218925987
C        15.08893033971535    4.30109274385437   12.09190866050164
N        14.93234788722398    3.27539666928205   11.24007574655255
C        15.81839874380506    2.27238015702159   11.52766719958081
H        15.85504071735133    1.36344253713643   10.96416769022904
C        16.54641364027216    2.69099037091570   12.59169556001310
H        17.33952089824632    2.21738275207002   13.13171849823368
N        16.08162951843285    3.93630012250471   12.91873371080339
C        13.97496905256420    3.27397729316082   10.18775499888735
C        14.37803491840362    3.67929262494245    8.91335940580745
C        13.41585152910860    3.73182872781641    7.91490734354746
H        13.69325786567661    4.05257982742276    6.92434717125253
C        12.10697566680925    3.37321494282155    8.17544501515395
H        11.37226274372557    3.40940560588704    7.38536160287006
C        11.73456879334578    2.95317028746588    9.43749508524126
H        10.71189523264558    2.66424944725483    9.62179513218103
C        12.66131459206964    2.89624225145906   10.47039026850577
C        15.80923586354734    4.07497865169388    8.63417779317041
H        16.44533171770561    3.71767965085110    9.45078966767951
C        16.33425237764888    3.45041919418609    7.34070511790032
H        16.16197224362977    2.37659438672235    7.33538559842488
H        17.40355425331733    3.62764597233087    7.25443530410450
H        15.85199744166366    3.88217796620818    6.46861141211858
C        15.91725555074919    5.60067574745928    8.58097457814818
H        15.56695937486368    6.04328698375747    9.51269895050788
H        15.30883588597533    5.99482396018385    7.77226783939048
H        16.95027074041613    5.89815638765182    8.41883045088194
C        12.24810054685025    2.41647053093984   11.84270369076648
H        13.11916454668666    2.42261503025438   12.50578371723773
C        11.72737861636206    0.97907718071239   11.76931260670789
H        12.47140332779836    0.32568932938148   11.31900177896571
H        10.81908734374671    0.92226730472384   11.17627983451086
H        11.50610971178744    0.61200389609440   12.76848470474322
C        11.19777108087026    3.34551403495881   12.45453335707192
H        11.60045820925325    4.35318525994372   12.55588633337592
H        10.91637592155242    2.98896544536697   13.44218516477862
H        10.30425816843063    3.38650394821106   11.83751659584607
C        16.54179694218808    4.74918106622474   13.99178994515089
C        15.98961251876011    4.55906265463735   15.26038288126959
C        16.40587064417305    5.40079998481528   16.28211323371394
H        15.98938164245804    5.28557362431251   17.26934192301047
C        17.35040485570486    6.38193717373367   16.04859944780654
H        17.67126961983710    7.02249732652092   16.85609137412374
C        17.89853030511204    6.53989361999309   14.79050930736171
H        18.64251749943106    7.30330692122427   14.62635405778348
C        17.50472754349078    5.72662996189691   13.73579897698942
C        14.95442173227254    3.48842017071191   15.51424937899617
H        14.92214423179888    2.80863514052522   14.65648472684825
C        15.29628242172758    2.65093306367033   16.74758080773024
H        16.31101645300561    2.26534513462226   16.67997012397760
H        14.61253270943803    1.80882004536916   16.82216407415694
H        15.20977607089255    3.23553764796156   17.65873157357271
C        13.57378886150912    4.13188239334778   15.66023478390811
H        13.32457520249236    4.70982069580629   14.77111691936151
H        13.55611719933330    4.80317030866424   16.51368951854687
H        12.81621292702772    3.36535009968524   15.80306079099923
C        18.12092849993955    5.89726115778654   12.36641188607605
H        17.70995949332031    5.14231419594680   11.68836734590159
C        19.63600020262058    5.69088475003331   12.43155047899195
H        19.87132542129276    4.72220875412004   12.86684479553215
H        20.11025369318861    6.46048930480255   13.03376216145895
H        20.06012688859242    5.73129407887432   11.43128107618694
C        17.78350485602748    7.27185521000369   11.78518220575681
H        16.70374802250993    7.38512148586292   11.68928066502524
H        18.22746211840066    7.37774227046341   10.79855536815866
H        18.16324800254424    8.06828482450239   12.41954181035334
C        13.02333485185665    7.74976910709001   12.14847884445389
N        12.62097423544824    8.44201247755848   13.22688396291940
C        11.94179921080445    9.56819884878870   12.84864701416846
H        11.54043195220278   10.25851603390037   13.56103697053110
C        11.92660203020770    9.57634719459235   11.49450359056512
H        11.50128845198264   10.27033988107144   10.79978116531266
N        12.59227523169798    8.45211429071004   11.08782006169662
C        12.84335305533359    8.06807177404875   14.58114273099324
C        11.81309298845297    7.44195855226023   15.28340176712531
C        12.02152522575474    7.13198432162324   16.61737174910150
H        11.23057165263540    6.65241845130482   17.17470191738737
C        13.22101206477957    7.42897431108727   17.25256997160167
C        14.22986645956496    8.04045044463777   16.52241071548666
H        15.16569596340273    8.27846077384552   17.00440568195967
C        14.06165091659957    8.37003975961805   15.18639791632468
C        10.51527767626391    7.12070762088649   14.60693567084764
H         9.94678601278426    8.03062362081179   14.41429310941491
H         9.91137551703595    6.47003619362895   15.23232011171760
H        10.68670282739537    6.62503731833046   13.65181490325873
C        13.40797123099330    7.11195053043112   18.70303104812124
H        12.92867456245675    6.17035272249261   18.96203101896302
H        12.95216220379876    7.89239318714786   19.31215078000773
H        14.46279621675593    7.05972450626930   18.96001102732233
C        15.16052100070595    9.03025312860912   14.41258965441782
H        15.61036258258520    8.31557753337526   13.72309410781670
H        15.93519740057372    9.38839029139264   15.08384999255900
H        14.78426359044663    9.87235274254808   13.83329313367904
C        12.80114322015321    8.10314359860599    9.72474921867243
C        13.84003829412559    8.71738362961564    9.02477012468567
C        13.99937345337380    8.41024109931688    7.68344112306696
H        14.79557239490575    8.88274326819933    7.12748649205748
C        13.15564009135735    7.51379285480953    7.03888605036238
C        12.14019289113352    6.91083533415762    7.76679679994734
H        11.47656103198893    6.21433772699216    7.27772639244732
C        11.94421026786504    7.19242961302337    9.11005186655508
C        14.75237629918623    9.68739031446727    9.71157902730334
H        15.60592382988981    9.91838806076013    9.08129294181727
H        15.11572434896537    9.27877142616744   10.65409834911334
H        14.22903063382437   10.61830116854134    9.93015607147190
C        13.33281516495281    7.22368334940314    5.58153956562389
H        12.83991456305788    6.29565259528499    5.30384579708418
H        14.38746876283842    7.16103792109489    5.32159601512210
H        12.89524293464541    8.02760753202327    4.98989759921986
C        10.84282832116098    6.53443152786821    9.88212671597959
H        11.25917745012635    5.79662429836922   10.56822443779594
H        10.15920474476710    6.02544736102418    9.20945418110929
H        10.28072987835642    7.26285772161956   10.46513119892705

