64
CSD_code = ULOQIX | q = 0 | S = 0 | Stoichiometry = C21H38N2OSW | MND = 10
W         3.10262044664797    7.88306562984729    8.15593460745975
S         1.79386986721451    8.16863476693610   10.26528934894375
C         0.10610292178006    8.71325433151402    9.86575863353897
H        -0.34948588872645    8.02054339954584    9.16239031639777
H         0.14061855939815    9.71687776390908    9.44833045111116
H        -0.45629386328229    8.72274206036492   10.79619463993138
O         2.04466385069318    9.79098864239718    7.73963524738511
C         1.56267402518351    8.74266609665775    7.24389716319084
C         0.37171076266352    8.77615519135270    6.33312603908695
H         0.72893930273682    8.80077224066030    5.30273854689328
H        -0.22594149769020    9.67036030893773    6.51217544417482
H        -0.24561805249843    7.89062909005017    6.45829009803184
C         4.91629422273147    9.68973724978682    7.72313650996857
C         5.78321799218841   10.91056443313920    7.53608812475587
H         6.64547626867512   10.85469355073394    8.19890815137712
H         5.22160816807326   11.80976715128232    7.78478882969086
H         6.14198587435877   10.98861235246621    6.51747734797980
N         4.38674916801310    8.96276117092235    6.75099640942963
C         4.26285876208863    9.36113233596367    5.36383669585796
H         3.56314468151471    8.62268526895864    4.94396072222115
C         3.62290604271565   10.74593668265042    5.16747028227178
H         4.34383773000797   11.54725283195555    5.30183050614974
H         2.81776228399267   10.88434095205854    5.88646944228395
H         3.21560184916869   10.82206805024073    4.16124743664584
C         5.56677309732030    9.24931855996409    4.55460145135833
H         6.11006476116488    8.34960544579501    4.82792296516118
H         6.21955172569989   10.10369067463785    4.71317665424555
H         5.33093129825895    9.20458868198796    3.49364232808314
N         4.62167850688933    9.18645170418519    8.90757644690119
C         4.97636122514297    9.84691594358630   10.14383511315912
H         5.96038392384728   10.33341424586893   10.04631695601626
C         3.92548376005769   10.91276700697985   10.47940386525269
H         2.95653419429103   10.42923783965090   10.59134627682000
H         3.85147456946906   11.64769454014345    9.68003219380294
H         4.17980381837958   11.42130487280737   11.40615628382852
C         5.06656866421240    8.81259192487039   11.26363375212980
H         5.85214717014887    8.09119017914088   11.04960884425618
H         4.11646325047275    8.29333994981620   11.35334126228936
H         5.29233731195090    9.30234643385272   12.20757650343177
C         4.56197099952010    6.09297286324106    8.11529679449535
C         3.97132262167250    6.03910160010194    6.81428599446067
C         2.57345202565404    5.84870470202001    6.95851361223180
C         2.27816787263088    5.74472340497687    8.35404452823020
C         3.53135061486433    5.86610664774614    9.08061584750742
C         6.04113408054105    6.11123184200368    8.37526404513665
H         6.47955445835202    5.13812666337476    8.14316105394012
H         6.24653480697237    6.33810539709656    9.41863378570001
H         6.53517492077980    6.86469892720971    7.76168342009928
C         4.71789525843419    5.91219354313558    5.52373003636429
H         4.78050269916481    4.85523844952984    5.25391121967896
H         5.73011082977885    6.29532027289815    5.61708404676055
H         4.21592440790788    6.43232851800079    4.71124907741436
C         1.64435205861276    5.53802821520298    5.82231152432497
H         1.83086265474869    4.52254251587441    5.46714517377996
H         1.79733467162277    6.21848766706978    4.98729308705126
H         0.60602368457063    5.60056502571326    6.13442768958168
C         1.01494296306958    5.20838208599973    8.96164011417111
H         1.10870485316963    4.13409994643963    9.13230748594140
H         0.15870485384492    5.37891764298904    8.31248751683051
H         0.82803850533144    5.69128053742154    9.92026979286409
C         3.70303581527795    5.44345300452221   10.51048005721336
H         4.70033500839314    5.67431899114947   10.87488830952713
H         3.54284766460004    4.36716009051094   10.59971895617545
H         2.97726091555568    5.95131189015860   11.14541493902843

