90
CSD_code = ULOROD | q = 1 | S = 0 | Stoichiometry = C35H50AuN4(1+) | MND = 2
Au       11.64186049763410    0.21788626148749   13.98000223297218
N         9.29479849186044    1.24952055325352   12.39004466404209
C        10.57520971825199    1.40945254258374   12.75906457685651
N        10.99989765620608    2.51392391215333   12.12510056679033
C         9.99550031804450    3.04636280259544   11.36345493189212
H        10.12984846577483    3.93184402260562   10.77804968495776
C         8.91514285444608    2.24453660851930   11.53089026788985
H         7.92911498646198    2.29832678989669   11.11907571744415
C        12.31863127251324    3.02795362083971   12.27068923300967
C        13.32729050447088    2.54435694241619   11.43498150394983
C        14.62163614984767    2.99970089572396   11.65042031541679
H        15.42443522758276    2.63977841027179   11.02680650905322
C        14.89359994164075    3.91250172258935   12.65162421418206
H        15.90552836436933    4.25452328887053   12.80562594978306
C        13.87519116275039    4.39829582498820   13.44988721896419
H        14.10116598119260    5.11774580939890   14.22032033082870
C        12.56680023239617    3.96646455016177   13.27453820825080
C        13.03381162022221    1.56988137791790   10.31786462490812
H        11.95370677467077    1.39977977133161   10.26183423745389
C        13.48213020787632    2.14599153867229    8.97260263735014
H        13.03850324518185    3.12558162748686    8.80922199226051
H        13.17093116555961    1.48805819496295    8.16500926168753
H        14.56259428443366    2.24812460795593    8.93001823290303
C        13.70396088710350    0.21957334349109   10.58097184731248
H        13.31358311090466   -0.22736697882876   11.49487146277994
H        14.78036921593165    0.33271397722902   10.67955833655044
H        13.50520088844717   -0.45950382916701    9.75580942336641
C        11.45956963083690    4.49302397786779   14.15726624095213
H        10.49789817468126    4.11782684367664   13.79262962382623
C        11.40381678608485    6.02142806970855   14.11601537577606
H        11.32302779604466    6.37422855224509   13.09026644191839
H        12.29246450838929    6.46007151239471   14.56039408227960
H        10.53815110906524    6.37491749084133   14.67073258185700
C        11.64224854280811    3.99267926438274   15.59202353130299
H        11.64712753689063    2.90378318529048   15.61848042441341
H        10.82880376362497    4.35162627627679   16.21741180428286
H        12.57932988233762    4.35204385479886   16.00793108137339
C         8.47539114230091    0.18047436655384   12.84917099625484
C         7.73523720219212    0.35408359268293   14.02049328643558
C         6.97119132023235   -0.71491523714552   14.47006335634890
H         6.38985450936926   -0.61310882896808   15.37246537891098
C         6.94381712772343   -1.90826112200267   13.77371113807043
H         6.34142176509358   -2.72719611611347   14.13568951021580
C         7.68216694725797   -2.05727391283155   12.61529653428673
H         7.65063920296413   -2.99391157400122   12.08216375701032
C         8.46327848261521   -1.01644975222990   12.13030287373375
C         7.76899572675954    1.64977285060068   14.79690764651135
H         8.34797773906610    2.39194063537448   14.23806888614876
C         6.35982130440929    2.21230622734771   14.99191119746924
H         5.85325085577486    2.31500229792620   14.03489789155959
H         6.41361361846298    3.19214366588946   15.45994311362449
H         5.76253420593390    1.56561525435871   15.62794541706142
C         8.46320728939654    1.43609659956334   16.14455074087039
H         9.48611549853590    1.09198913545855   15.99409562781593
H         7.93232622227641    0.69749806282999   16.73928558032162
H         8.49118566215229    2.36947336340281   16.70081044147874
C         9.28121227780690   -1.19636232016079   10.87314759355553
H         9.78129510847289   -0.25367609987490   10.62848567389974
C         8.38953613053534   -1.57072812262619    9.68777321915470
H         7.60622849258215   -0.82887952585216    9.54874357142501
H         7.92099114291552   -2.53869910975273    9.83980173867165
H         8.98315615972409   -1.61953576650734    8.77823060852900
C        10.36534894607004   -2.25352273179289   11.09723264145118
H        11.00486007893029   -1.97029547483402   11.93299199153216
H        10.98115628423147   -2.34989440592163   10.20665904824288
H         9.92297543366019   -3.22177239410557   11.31435836444620
C        12.71504233763723   -0.99910636995074   15.19170855398039
N        14.05332731938598   -1.11229206124814   15.25114391878342
C        14.40968911760454   -2.02961281095271   16.19911521933398
H        15.42928834824378   -2.27935710099219   16.40577526366909
C        13.26113997392894   -2.50107537855674   16.74057952740860
H        13.09865519344796   -3.22985953362294   17.50693618442916
N        12.23402808428114   -1.85756796908004   16.10800720725182
C        15.00076471123882   -0.36420754988829   14.46308655621557
H        14.45248740821259    0.12261185302860   13.65310005868329
H        15.72405729602829   -1.06341711495747   14.03374762892075
C        15.73006290294158    0.69317513594519   15.29486117344365
H        16.26010022361361    0.21229301368153   16.11938017678116
H        16.47249636711514    1.17025224319684   14.65394760973935
C        14.78229138262286    1.75518074041116   15.84593831412576
H        14.06345665538840    1.29037143224720   16.52515372926487
H        14.22314834843225    2.19894273321727   15.01902040125396
C        15.54399523875385    2.84496536985752   16.58862796473852
H        14.85613928140830    3.57936063279168   16.99880043223209
H        16.23151857566089    3.35332489968740   15.91732629210327
H        16.11717132325438    2.42131436432101   17.40970404685520
C        10.84647337955838   -2.08458893962959   16.40313427762325
H        10.59256881085030   -1.67092249028033   17.38104435504836
H        10.63734780644149   -3.15431276021666   16.41107527956052
H        10.23168308005783   -1.60442311334351   15.64299863323083

