68
CSD_code = ULORAQ | q = 0 | S = 0 | Stoichiometry = C24H40MoN2O | MND = 10
Mo        7.40960965290666    4.03980221113436    1.10967452567409
C         5.68561029882536    4.60314682074279    1.72469568005412
O         4.59758498190934    4.89593290697080    1.98335624666825
C         7.96198006267548    5.72098269142802    2.48092454531161
H         8.67829124487764    6.44489917169148    2.08068226607424
C         8.43642103571224    4.46162408927589    2.99349538183214
H         9.50348794500092    4.24460503179300    2.94296760605944
C         7.85281234143591    4.23399783276195    4.37379760538315
H         7.55557561125147    3.20315204728249    4.56619892208122
H         8.60806366482235    4.49887344758891    5.12220703671102
C         6.67091513053998    5.19880037957707    4.46755447962993
H         6.50945323190799    5.54969058467040    5.48760607751175
H         5.75792502570556    4.70817984354540    4.13881257391604
C         7.04342362195030    6.34539585823441    3.52364960063580
H         6.16306806558812    6.83756677891934    3.10834917417161
H         7.61072826892278    7.10421068317358    4.07542516608191
C         8.70940955200372    5.63117611898424   -0.53381664339262
C         9.39830524794971    6.59902387075282   -1.46925003639217
H         9.05375888244933    6.43583161344330   -2.49045989042685
H        10.47388787411206    6.48727600426413   -1.45173957689792
H         9.14859901155396    7.62094148042172   -1.18531610779621
N         7.40633564815186    5.57276946862666   -0.40462864091117
C         6.50584769047241    6.50302126280264   -1.03154653868298
H         6.97452333283617    6.93630591452734   -1.92782485341970
C         6.16763108558904    7.64280830002223   -0.06264215376112
H         5.63035669841789    7.24275243155708    0.79245170445653
H         5.54785273052813    8.38893618744255   -0.55432131134297
H         7.07714797715064    8.11923565238999    0.29722292505915
C         5.22737538274670    5.79335212078280   -1.47100216947912
H         5.45609866549155    5.02660316485967   -2.20718519921693
H         4.53826307244857    6.50628561127620   -1.91747384640536
H         4.75014715574512    5.33187539614792   -0.61308829650593
N         9.27874911037112    4.73844472770171    0.25449634815747
C        10.70452857670127    4.57175275955213    0.42481485289424
H        10.80906030061375    3.70736338964963    1.09264995631878
C        11.37793850437773    5.75613345630241    1.13939561790172
H        11.26885586779974    6.67878534451754    0.57553154737441
H        12.43874342622083    5.54697566681170    1.26430392524053
H        10.93791189133256    5.90517706251699    2.12228016594862
C        11.46015649941801    4.23605593553160   -0.88222663962509
H        10.76489819291347    3.92713260689870   -1.65981038577721
H        12.16676902458685    3.42662898193967   -0.71221081070733
H        12.02481517950363    5.08967421152357   -1.25075365856177
C         7.25951776952902    2.36014624357158   -0.44698194606371
C         8.29568080863621    1.92519011107921    0.42756301866979
C         7.76260924216928    1.76096332789485    1.72617853579037
C         6.37476702573190    2.07937457276682    1.68045980817454
C         6.05015079394465    2.42544683723663    0.30956904326367
C         7.38300716567717    2.42284693687331   -1.93992520552240
H         8.29564530401086    2.94015680524815   -2.23517009014984
H         6.54071109393027    2.95130890128536   -2.38018941691614
H         7.41212578797365    1.41500620995929   -2.36162467099996
C         9.62615475617854    1.39887394561678   -0.00498038987349
H         9.52863493685532    0.32895212508407   -0.21013475777915
H        10.37862152582801    1.51854694790719    0.77156034789662
H         9.97536400501282    1.88286280302952   -0.91204608559881
C         8.48676378970871    1.08140552647399    2.84850558889372
H         7.88994275222244    1.07358868535938    3.75585972813967
H         9.43651153927906    1.56550316760737    3.06825688281299
H         8.69317235339883    0.04516888654638    2.57138997559819
C         5.36205197742980    1.68682234168220    2.71618063376835
H         5.11835618502291    0.62615820386540    2.61207514768811
H         4.44248880637047    2.25694085939995    2.60254010760088
H         5.73834497582716    1.85278745724357    3.72360431700200
C         4.65843574084868    2.39263292463400   -0.25074871383421
H         4.31484169119820    1.35655832436668   -0.31021514022922
H         4.62238774033063    2.81955365351177   -1.24984692847479
H         3.95819546738262    2.94042508172646    0.37807303831066

