110
CSD_code = ULOSOF | q = 0 | S = 0 | Stoichiometry = C49H42BF15N2Pd | MND = 4
Pd        4.48633214133730    7.42524700744431    3.57877087730928
B         6.51529800224568    5.77160201449562    8.22954993952234
N         5.58023771732107    6.48910234474032    5.74166267257688
N         6.95010755330647    5.43239211808358    4.47261820228696
F         5.20167327744795    3.49688475009572    6.71048327376863
F         3.56816191478795    1.69275824889280    7.73047345292829
F         2.96106574568981    1.69461186197597   10.40779300981941
F         4.08115810785477    3.60842439588528   12.01948146907764
F         5.73098364202136    5.43768230539422   11.00470933918296
F         7.73900312286803    3.46043699350073    9.80130430873632
F        10.32732923031057    3.08056923924892   10.21235839148844
F        12.18613206912739    4.79904646083754    9.16586323444791
F        11.33014834214043    6.93095946853676    7.66633252683489
F         8.72622303237820    7.33028287641747    7.25537659154106
F         3.78931339181350    6.63320915802730    8.38444355607951
F         2.78446865256808    8.76370542647166    9.60077882650165
F         4.42026595257413   10.44007241893694   11.04586669229143
F         7.10201787081258    9.88877193735721   11.15549161102349
F         8.12221391611538    7.82503947556203    9.88599617383956
C         5.88697598291712    6.23731225054742    4.45217828629142
C         6.43965314451146    5.85012287822500    6.61045904502490
C         7.29550294873180    5.18658576595672    5.77776485162888
H         8.11147486474244    4.53553528950816    6.01254504827282
C         4.47471638139826    7.39347436793960    5.85787878774989
C         4.71909837435782    8.75835164157583    6.14233781739028
C         3.63196827848688    9.60993109870658    6.27411138115271
H         3.79443011889813   10.65030666050754    6.50479228343226
C         2.33457590462896    9.14387153561964    6.12417922214099
H         1.50393404399197    9.81957777505236    6.25777121409635
C         2.10505950020031    7.82550559265132    5.79261943075425
H         1.09005690486136    7.47684351619437    5.67824603182159
C         3.15899446876765    6.91625289250301    5.64184804503306
C         6.13887163425051    9.27464963065003    6.24040731057113
H         6.77135983460002    8.48236001250467    6.64600680395047
C         6.28456296228065   10.50414028994765    7.13635733686177
H         5.91860767809882   11.40057738787660    6.64076596831870
H         7.33545124105694   10.65620273011624    7.36781089889678
H         5.74491203844243   10.37586483773920    8.06989354540637
C         6.63396876919229    9.62006259318600    4.82722701989878
H         6.60945183035226    8.73754989875289    4.17149760637261
H         7.66019061530994    9.97508090682492    4.87569121084285
H         6.01574956484802   10.41164497996706    4.39939499651801
C         2.83754160533187    5.45541638618940    5.37776030123499
H         3.77027598439463    4.88524774356414    5.31584207322744
C         1.98612459449959    4.85240015792300    6.49734168759066
H         1.00278032913151    5.31345545571855    6.53377727751476
H         2.46249047923942    4.98918794619574    7.46191212658632
H         1.85925111421754    3.78706032961192    6.32085371038817
C         2.10233799870734    5.32057213405507    4.03709292056661
H         1.12920139033738    5.80564864218426    4.08035126200019
H         1.94502116232564    4.26962504997920    3.80814337314362
H         2.69580699965040    5.77592488167610    3.22858374735868
C         7.66988613525393    4.95306973159876    3.34381224262172
C         8.86372910683922    5.58659976443457    2.99354318632567
C         9.56165576197514    5.10026247951830    1.89540353119185
H        10.48862447869248    5.56798820173160    1.60340143139402
C         9.08384428493294    4.02577672143270    1.17147308675442
H         9.63815149828069    3.66177299246592    0.31941688643924
C         7.89805270620270    3.41429570957861    1.53281342169235
H         7.53641344767709    2.57818528792397    0.95652387998187
C         7.17397314419879    3.85990472140307    2.62988732485858
C         9.39163214519350    6.77416890688019    3.76273311599461
H         8.71715268262320    7.00293663487920    4.59184911417665
C        10.76745425601849    6.46627111314790    4.35624444039372
H        10.72827178529992    5.55901005385992    4.95579310625754
H        11.08955325137867    7.28481245992779    4.99419277151165
H        11.51041681850981    6.32637829885833    3.57559809174428
C         9.44680004358664    8.00610412636117    2.85640866011610
H        10.14883036959879    7.85942535086894    2.03997922338485
H         9.76528342794081    8.87334996353667    3.42908234374030
H         8.46417919236560    8.20582652340353    2.43184814451486
C         5.86105738614565    3.22032581397331    3.01288626092917
H         5.65508728072488    3.43815648161213    4.06501028691112
C         5.87112710646405    1.70050186769469    2.85370467125687
H         5.86299046571898    1.40785210688913    1.80684047044655
H         4.98763916013121    1.27957915979181    3.32731276403086
H         6.74973478127798    1.27266698639948    3.32991055934953
C         4.75140608699821    3.84538892889694    2.16100322257566
H         4.68554261185648    4.92088408820600    2.37018770006044
H         3.79783343341637    3.37515960738693    2.38562986849256
H         4.96691155006408    3.70768800822205    1.10309910816624
C         5.53678057797121    4.58187048823959    8.80305439031147
C         4.95972215819816    3.58002889869673    8.03490519597135
C         4.10207977212326    2.61277920936258    8.54905544432383
C         3.79101744647389    2.61109628931418    9.89936043138350
C         4.35955557886346    3.58495222679981   10.71120817342926
C         5.20713441817897    4.53521024224709   10.15739936721268
C         8.09519750487108    5.44468163156877    8.54058067946005
C         8.57742155953575    4.36968234975912    9.27586537335389
C         9.93475440922026    4.14172840650302    9.49684044943646
C        10.88044335351255    5.00628256443163    8.96672112929389
C        10.44264047473982    6.08532004637037    8.20891202801937
C         9.08351326011209    6.27268429576145    8.00950293011049
C         6.01889902781871    7.14719712830919    8.98991320658839
C         4.66022253486480    7.44996768786942    9.01009932289137
C         4.10467030494237    8.53600561811275    9.67141176910322
C         4.92563395484188    9.38172167541813   10.40368894357718
C         6.28412390811922    9.10108295608275   10.44845759927978
C         6.80174693080817    8.01015723345220    9.75307049061684
C         3.27181181033252    8.96901764383943    2.69519262574864
H         2.20573793040019    9.12292503404818    2.82862692035645
H         3.89701613974140    9.81975555129908    2.97653115441293
C         3.70927137750401    8.08520623070781    1.71331771165867
C         5.11261634770259    7.83348037039530    1.65178791473917
H         5.46303804838636    7.07011703734299    0.96248626357622
H         5.78966158236733    8.68381972041120    1.74975007277668
C         2.74879586282809    7.26497924031816    0.90095405035923
H         1.75942438650487    7.23556913352037    1.35468570953741
H         3.11290197215985    6.24842773196031    0.75021147362545
H         2.65430054207026    7.73086950535926   -0.08107650773045

