47
CSD_code = ULOTIZ | q = 1 | S = 0 | Stoichiometry = C16H24N6Rh(1+) | MND = 6
Rh        2.37996525959449    4.51950610335042    2.56382527942707
N         3.11238754380901    1.75906558682660    1.45321887809093
N         4.73356505760759    2.66975018104599    2.48517758963082
N         5.15893048938397    1.44066053036259    2.15096126496951
N         0.75528434404665    2.15170378427341    2.96030848923666
N         1.39746179607528    2.68185338077999    4.91503819059709
N         0.70720060703014    1.53239470480024    5.04738385821994
C         3.62697693953392    6.06903846524531    1.61925047006178
C         2.74016609556043    5.56203787288102    0.69376971988829
C         1.45116140821087    6.21952680056053    0.26552979509027
C         0.62002941522198    6.79291287625652    1.43023589474734
C         0.75477197865960    5.98415967957114    2.69972418917289
C         1.68290303842287    6.24140415545269    3.68576936998345
C         2.74036583229597    7.31599524283256    3.64129853764041
C         3.47508673092994    7.41361114510590    2.29098981273788
C         3.48859710594945    2.91920058370882    2.06724972709024
C         4.17173488140765    0.89797888526470    1.52618765161261
C         1.44616796915447    3.10435195301129    3.65189678121751
C         0.32590437121930    1.21921799273475    3.85488710843284
C         1.83399563202187    1.41580803296289    0.86880281431362
C         0.65165376951608    2.15110959376780    1.52344073685162
C         5.58199524089050    3.52996217615263    3.26191241735435
C         1.98482607590212    3.29389771478973    6.07274741071891
H         4.64874659975409    5.69607725625221    1.58009648777386
H         3.11833946929891    4.83733833807512   -0.02977860994491
H         1.68577783353774    7.01643199676358   -0.44656356192461
H         0.84985333388611    5.48282663999970   -0.27512170655239
H         0.90881780720137    7.82316158479209    1.63443619364510
H        -0.42877653937810    6.80794092954134    1.13044136108738
H        -0.14487061736747    5.43871696707071    2.98772128188192
H         1.44578887747019    5.91141388743897    4.69758389732584
H         3.46969844874062    7.10867974015051    4.42921590238844
H         2.27780470875720    8.27776342565645    3.88231810309323
H         2.95366143860349    8.09333625998846    1.61815611525218
H         4.46596263799225    7.83429535327959    2.46724632054131
H         4.17847345776121   -0.09259738983748    1.12204357798970
H        -0.25187508552527    0.35231023767196    3.61062176427358
H         1.71051908378046    0.33436747042242    0.98128588794184
H         1.83798791421503    1.65004782982270   -0.20126902082363
H         0.64338450871676    3.20256970694674    1.19933919068351
H        -0.27795189968929    1.66709511328982    1.21767050438967
H         6.02517507229809    2.95126772127590    4.07151294353812
H         4.97795567694036    4.34624838134442    3.66636859792655
H         6.38778902225206    3.92882349732909    2.64402892376190
H         2.45538004033876    2.52276038152933    6.68097007124541
H         1.21717267147315    3.78467002316290    6.67292980737923
H         2.72695395649941    4.02290720629390    5.74923998003651

