71
CSD_code = ULOVEY | q = 0 | S = 0 | Stoichiometry = C27H38Br2FeN2O | MND = 4
Br        3.51598877538072    3.60165853109338    5.71645147327256
Br        3.81743854458919    3.78019575809511    1.58296888563146
Fe        4.53517220960544    3.49693864452278    3.74369205469265
O         4.00992288288273    1.15584416926073    3.67998556806979
N         6.74103370854244    5.10840371529564    3.47036766192865
N         7.23553928794431    2.99061372230444    2.65811033019388
C         6.36750792153539    3.84085188012218    3.21663416334919
C         8.10594518591811    5.61364974856514    3.53997399757096
H         8.71382566462187    4.92829771296270    4.14017063500584
H         8.07281032030944    6.56789540019622    4.07026010122387
C         8.74371417930662    5.81844114814098    2.16657335390219
H         9.81317301584147    5.98520109575884    2.31164695966732
H         8.32881406508807    6.70770863955146    1.69121634221884
C         8.51642178604030    4.60211532624151    1.26711859485295
H         9.28489554861475    4.57195388770865    0.49326564973348
H         7.55090067815267    4.67883472961927    0.76353143192947
C         8.53700682831594    3.29671023293641    2.05436775724679
H         8.76438401588897    2.47024852808914    1.37881277336012
H         9.32905293350834    3.30848758816624    2.81273549118820
C         5.74902776575027    6.01177997340242    3.98942642636887
C         5.02405337576083    6.83828699057578    3.12503636130735
C         5.24482877806226    6.85068314439225    1.64378093709937
H         5.72554790386788    7.78696501434679    1.35681864491495
H         4.29543314893795    6.78327283670554    1.11772846073115
H         5.86427099696264    6.02139325757559    1.32140834478628
C         4.10128954495198    7.72368862743424    3.66927334546668
H         3.52338389428991    8.34179957149338    2.99725821088616
C         3.91636613284654    7.83885644753738    5.03693834801587
C         2.89408026593847    8.77319195006684    5.60531165918489
H         2.01865699432026    8.20757437859071    5.92443989010616
H         2.57786294002402    9.50392306979117    4.86513183309160
H         3.28852500078185    9.29464725331725    6.47521031078643
C         4.70190184507544    7.06304723711668    5.87840793794068
H         4.58863099088021    7.15607921910065    6.94854320860141
C         5.61963630902113    6.15321114830515    5.37941861877192
C         6.47240408863787    5.37048825798266    6.33411274198930
H         6.81777753973180    4.44076043737177    5.89052859720059
H         5.90580311665513    5.13336612026634    7.23077238600963
H         7.34235067016922    5.96035722753658    6.62724608077779
C         6.96533638956960    1.58619853847399    2.66838620210843
C         6.69376789952867    0.90846429611191    1.47819550010481
C         6.50637555000861    1.63157273322195    0.17930560976644
H         6.05025191247330    2.60460267512733    0.33780361631952
H         5.86182164343697    1.05615720065627   -0.48042080910162
H         7.45940516325693    1.77437039195583   -0.33153830256688
C         6.59467455254091   -0.47686860407138    1.51016271078587
H         6.37825679677921   -1.00308415031260    0.59088523163073
C         6.77162939281075   -1.19588447347531    2.68092687757723
C         6.71345256035547   -2.69404619366798    2.68737197924170
H         7.72371466322688   -3.10450893637116    2.69675281022067
H         6.20487757614170   -3.06983831127291    1.80259637716513
H         6.19892402252755   -3.05963577856515    3.57410352283043
C         7.01774987772763   -0.49725841275512    3.85513522249698
H         7.15329382249609   -1.04501403822405    4.77783201295358
C         7.10624128648307    0.88532694943327    3.86915813805321
C         7.32649489979869    1.61558932294028    5.15853546699758
H         6.40677418917105    2.13519784416693    5.43829157510481
H         8.12056489366956    2.35454647877882    5.06460737300487
H         7.58688938012487    0.92507866261076    5.95614100612473
C         3.37273949232069    0.60920035824996    2.52142170278025
H         4.02092245278686    0.79029239854780    1.66384244739469
H         2.41681007125796    1.12267584653549    2.36004552699220
C         3.14789502570926   -0.86722153463186    2.81336950809030
H         4.05588482042757   -1.43301768786203    2.60675665674453
H         2.32584084208580   -1.27834986090337    2.23285075903289
C         2.87188123748567   -0.83305863248492    4.31283178519425
H         1.83964088504825   -0.53568268012957    4.50072472816667
H         3.06141269197206   -1.78195154434664    4.80906125784954
C         3.83321255133273    0.25651238462019    4.77905658214285
H         3.45420298438169    0.81191931359467    5.63911672357003
H         4.81298161832634   -0.16560717746493    5.02811463213896

