50
CSD_code = ULUDAI | q = 0 | S = 0 | Stoichiometry = C26H19ClN2OPd | MND = 4
Pd        9.25626165761408    6.64249273697558    4.65847744711143
Cl       10.70162026856403    8.96151146951700   11.06898086121303
N        11.09001855251153    6.76393489863894    5.41548227935806
N         8.07540850973633    6.39960814341622    6.46415564631349
O         7.54149070734296    6.28655613453093    3.65477847003522
C        10.23256455226892    7.29093416479822    3.03962255003386
C         9.74987689103507    7.55215740632618    1.76403687624224
H         8.73941859769044    7.25997647741270    1.50449651546432
C        10.55588156370088    8.17148155655906    0.81807616809144
H        10.17073489365632    8.35843609062022   -0.17465056684395
C        11.85499192313107    8.55660907527554    1.12891870340103
H        12.46601668836707    9.04044622936248    0.38080573700207
C        12.36269192772825    8.32116837638297    2.38939769938807
H        13.36948967751337    8.62128600145384    2.64479786969601
C        11.55788540279982    7.69384725760073    3.34484437398600
C        11.98543818398831    7.30938492663836    4.65648558748480
H        13.02787638439425    7.37403471058072    4.96765170188706
C        11.41357717515643    6.15657826406826    6.62836020155427
C        12.25284469562390    6.73747555637125    7.57552282592881
H        12.67245311949500    7.71551354905503    7.39136289645682
C        12.50896296910938    6.07586731934403    8.76253617768250
H        13.14535781188250    6.53682679521588    9.50272969338663
C        11.95332579502123    4.83132532185256    9.00475981569688
H        12.16030128408713    4.31965679998895    9.93221680400834
C        11.12791768082456    4.24315235419976    8.05770239463845
H        10.70003174791140    3.26934083587236    8.24420240418456
C        10.84892871278314    4.90305608496479    6.87849663480738
H        10.20175384390862    4.46275814717040    6.11693240338649
C         6.92172133764216    5.81320190011154    6.52219303380565
H         6.41657554530118    5.74871843913895    7.49280989355213
C         6.19108600380540    5.31017604215714    5.41691106947434
C         5.01530411697418    4.57793565283090    5.68824185773525
H         4.77162932617963    4.37768675579040    6.72329629588891
C         4.20189800239885    4.11296762750211    4.69421296012345
H         3.31596483714499    3.54285235901984    4.92773041906708
C         4.52595800984400    4.39410932351921    3.35971895974302
H         3.88246181493213    4.03577170443225    2.56884489677339
C         5.64154991423862    5.11727439166982    3.05370953747820
H         5.89653656317583    5.34191214995762    2.02848796126125
C         6.53857430644149    5.59931508776180    4.05178668316340
C         8.63308665808219    6.98397212858133    7.59898075188748
C         9.21786882015105    8.24680760516273    7.44891540975420
H         9.16629145402759    8.73231684153403    6.47182913249138
C         9.83896801129596    8.86288849229079    8.51494285273286
H        10.28964043638318    9.83644136174267    8.40177315706326
C         9.88629782346738    8.21430465772267    9.74078119697778
C         9.30106725480549    6.97029269766506    9.91178415281440
H         9.34946163943680    6.47926617157242   10.87092055999490
C         8.66615299799466    6.36149146414771    8.84713225932844
H         8.23518390844471    5.37908046158243    8.97071678732832

