98
CSD_code = ULUGEP | q = 0 | S = 0 | Stoichiometry = C36H56AuClNOPS | MND = 2
Au       -0.77946298136081    4.21902375049936   -1.25725041901577
S         2.17218450600753    1.11914029357002   -4.30926688643510
P         1.35447751447533    5.00107259450155   -1.35971543664885
O         1.19738027809498    1.82688961538909   -5.13921049503512
Cl       -2.87650680899226    3.32920091155130   -1.10359115538437
N         1.42696941521331    0.66848024499320   -2.82416141265389
H         0.51289500489768    0.26459588824661   -2.99452890389639
C         1.55694733229369    5.93239974908352   -2.97971304215594
C         1.15989791683127    4.89956283916206   -4.04102962372575
H         0.16249861170118    4.50359165749616   -3.82380543760449
H         1.85947379661283    4.05916167377704   -4.03720820472814
C         1.14587412261374    5.54205929858409   -5.42487261417513
H         0.86444067327445    4.77980909123500   -6.15712184755511
C         2.53714345392746    6.08122583035622   -5.74757792843590
H         3.25896782568608    5.26143747851294   -5.75254893841679
H         2.54065120480609    6.53881208609667   -6.73902740518683
C         2.92747257124825    7.11653020417736   -4.69525876721408
H         3.92849681133717    7.50553164048145   -4.91574503455937
C         1.92130107902879    8.26600897814107   -4.70886551115257
H         1.91907649790935    8.74392001787189   -5.69051387825556
H         2.20528459336393    9.02125390868579   -3.97125054066084
C         0.52903550701283    7.72185660209044   -4.39210405745851
H        -0.19620005199568    8.54339361551926   -4.39537490899719
C         0.54740089184543    7.08062370817720   -3.00388571067149
H        -0.44838173159282    6.69862687642450   -2.75354799609804
H         0.81598144022613    7.84004991038470   -2.26516541826456
C         2.95221364706175    6.45870143487193   -3.31139172980329
H         3.27921434191501    7.19258026279535   -2.57306632641858
H         3.66998339858755    5.63568167101907   -3.32701238923278
C         0.13194931322059    6.68379900878560   -5.43978778849185
H        -0.86574082127618    6.29785667254342   -5.22125767948699
H         0.10387127288073    7.14731578525385   -6.42817538083538
C         1.64682760589969    6.07743060425144    0.18114099382440
C         2.64421186468677    7.23560981423078    0.10896435205782
H         2.33054031216864    7.95537787611538   -0.65007410662595
H         3.64842315280516    6.89343560751962   -0.13905980549212
C         2.71318536152189    7.94217450485280    1.46775628560841
H         3.45201149722778    8.74960110756100    1.40319885303276
C         1.34851125117396    8.52657392307709    1.81903125833870
H         1.39910995556604    9.04471766897538    2.77871468623500
H         1.04524787479805    9.25366790940930    1.06196409489992
C         0.33342395253248    7.38949364414753    1.88923272703752
H        -0.65900038931997    7.79321787352125    2.11569023762716
C         0.74271344002943    6.39837881791796    2.97591837053200
H         0.00512663927759    5.59608638450152    3.04392840910442
H         0.78248401765317    6.90125180130608    3.94440203435327
C         2.11320412388882    5.81971385558276    2.63261027886738
H         2.41605446103314    5.10663654012677    3.40735910751193
C         2.05057935643162    5.09662523832911    1.28763151515885
H         3.02467904588751    4.65178673901299    1.07033794694662
H         1.31558007588841    4.28477022805814    1.33168512072336
C         3.14044069383417    6.94778218458512    2.54626617365640
H         4.12477491116765    6.53727455648814    2.30774682996302
H         3.21530307140822    7.45717268873481    3.50909051773852
C         0.27595923824627    6.67016319984811    0.54241155738708
H        -0.05178515849827    7.36722863772093   -0.23172395900172
H        -0.46909274523511    5.87014266255352    0.60035865987992
C         2.76580237541917    3.82180183617113   -1.43160368722141
C         2.62732612650317    2.45296904355138   -1.69694677412461
C         3.76686521544672    1.65540005798030   -1.75435736620354
H         3.64054787611752    0.60575737416235   -1.96263789443982
C         5.03085520442234    2.17431392589630   -1.55824560156487
H         5.89624773893896    1.53078238580990   -1.60717848227737
C         5.17449585444657    3.52543909607455   -1.29802953974093
H         6.15307777766045    3.95566841256040   -1.14408751661196
C         4.05335281062099    4.32900321971084   -1.24058713712723
H         4.18464464927537    5.37974848181591   -1.04570035372439
C         1.29466064628371    1.78711101424800   -1.90600713303303
H         0.59920883245503    2.53638046195265   -2.32292834172150
C         0.69885962752761    1.30409607333704   -0.57086636370039
H         0.63801824438178    2.16498683205331    0.10087952885399
H        -0.32008129461899    0.96606021154360   -0.76297492034234
C         1.50689446852167    0.19649638078353    0.09510243045898
H         2.52669564982674    0.55383813384304    0.25586591970214
H         1.55495520143841   -0.66547491063946   -0.57290526955262
C         0.92767535219757   -0.24092821827302    1.44543083429642
H         0.80821081976623    0.64947110195362    2.07351582736181
C        -0.43453254594160   -0.91284390705375    1.29242121662389
H        -0.78625410141854   -1.27153772852590    2.25718857659550
H        -0.36410034148696   -1.76345708672963    0.61727634764024
H        -1.17542420914171   -0.22011219358849    0.90345491865499
C         1.90322603119999   -1.19302377731360    2.13625178984810
H         1.52221282519534   -1.49045813100531    3.11035267653794
H         2.87213386445129   -0.71869546274052    2.27788754737625
H         2.04444965231513   -2.08969732384018    1.53623876104679
C         2.23940284941078   -0.61022025779853   -5.02368966452091
C         3.07355733620990   -1.46008906968895   -4.08495771155000
H         3.18835709503197   -2.46641103366368   -4.48539248546798
H         2.59821712724467   -1.52743155355798   -3.10945340897601
H         4.06371875539182   -1.02518837855157   -3.96151164086553
C         2.93331158828420   -0.39897357644509   -6.36253766878482
H         3.04377871634141   -1.34092996315643   -6.89744423413031
H         3.92109037336316    0.03553192273766   -6.21655008755948
H         2.34604958646835    0.28274155556481   -6.97416873277987
C         0.82887318661179   -1.13155985520522   -5.21910588153919
H         0.81954186054755   -1.94869413353210   -5.93885195971962
H         0.20145323888980   -0.32912818548804   -5.60632728109160
H         0.40531969167683   -1.49965014408972   -4.28676850316629

