53
CSD_code = ULUJOC | q = 0 | S = 0 | Stoichiometry = C22H20N6O2S2Zn | MND = 4
Zn       -0.71410396352640    0.67267886517222   10.43178397290620
S        -1.83060961291538    6.23789782233859   12.28693999743251
O        -2.20662152132936   -0.38645430666081   10.81558541388847
C        -2.59291008824818    0.54724730303568   12.96549222731317
H        -3.20546812068854    0.42524389490207   13.84590900811764
N        -0.81686211695947    1.79866522560528   12.00275577932806
C        -2.82169959888780   -0.34729736007679   11.92622851158057
C        -1.65245172730326    1.58115865244343   12.99881786209901
N        -1.76626422547240    4.63050362234198   12.30072844109698
C        -1.59053816111736    2.41384142922976   14.24776770708139
H        -0.57701140023342    2.76895754738314   14.42519237764132
H        -1.92720432575335    1.83743193733612   15.10507883777335
H        -2.23943632512958    3.28133358428417   14.13397574633923
C        -0.00888625568746    2.92643425036556   11.92363030503581
C        -0.51274170507422    4.24757758571961   12.04989263806360
C         0.36112661943456    5.37515249133161   11.84533490870872
C         1.31818694535594    2.79987243287122   11.56855336086932
H         1.71411166524769    1.80320632168224   11.43463454319873
C         2.16139594209371    3.90508564424342   11.38164850574061
H         3.19173982380144    3.72451153946859   11.11497095213282
C        -3.91206926157529   -1.37707391648451   12.12846422618460
H        -4.85822367070459   -0.88645406607952   12.34533872171411
H        -3.66302531161994   -2.02159012611465   12.96864129103547
H        -4.01226397177725   -1.98145000309209   11.23135510721264
N        -0.28661438755264    6.53595805628838   11.97136249000167
C         1.71380674976416    5.19074444935602   11.52198476774788
H         2.35095429073305    6.04707680103750   11.37389597642295
S         0.40240644129359    6.23792321199340    8.57665107682621
O         0.77839806044862   -0.38644917893264   10.04799992660902
C         1.16471890433195    0.54723935495940    7.89810006715286
H         1.77727269591282    0.42521125691713    7.01768705807662
N        -0.61132100829932    1.79867884957063    8.86082040340556
C         1.39348811156894   -0.34730882914092    8.93736139864177
C         0.22427163886965    1.58116102005143    7.86476485455877
N         0.33807520542312    4.63052705498493    8.56284917281293
C         0.16238018157894    2.41383481156421    6.61580579215750
H        -0.85114302617707    2.76894063739018    6.43835669207988
H         0.49906850366700    1.83742070535151    5.75850867026399
H         0.81126843834129    3.28132982476440    6.72960959964391
C        -1.41930463661164    2.92644315245318    8.93992593982129
C        -0.91544764124350    4.24758780398936    8.81367147642490
C        -1.78932511371597    5.37515724910007    9.01822755277197
C        -2.74638265666806    2.79987603817402    9.29498327983440
H        -3.14230027176108    1.80320475848162    9.42889600579144
C        -3.58959725255841    3.90508833760017    9.48187567325638
H        -4.61994303330160    3.72450027805317    9.74853721664091
C         2.48384881284540   -1.37709611240541    8.73514771499536
H         3.43012460509289   -0.88646608158420    8.51902948052381
H         2.23523669337116   -2.02115076944986    7.89454919637168
H         2.58356751134795   -1.98190636278086    9.63196963509495
N        -1.14159296446070    6.53596758702708    8.89221463814776
C        -3.14201166767521    5.19075028655431    9.34155286760129
H        -3.77917281650649    6.04707543736765    9.48964093383375

