87
CSD_code = ULUNUK | q = 0 | S = 0 | Stoichiometry = C42H42P2Pd | MND = 4
Pd        3.30717095659240   11.65480996077156    8.37516323229409
P         4.65847881318512   11.73529672194046   10.17473374191134
C         4.95392308109311   11.57535395427995    7.25346861025170
C         5.95085954904744   11.34753665934189    6.59659169625067
C         7.09564853897662   11.04230611664287    5.83078663643190
C         7.90652992352931   12.03496421447847    5.28291170988336
C         9.02097064081732   11.69827003003051    4.53994497349024
C         9.34827708421739   10.36477993912533    4.32891326447266
C         8.55883398772935    9.36487885699429    4.86161482728817
C         7.42964848934360    9.68737028096341    5.61436568249983
C         6.61818223194838    8.68026527526916    6.16036559286940
C         5.89287350855656    7.83449337375687    6.64563315274497
C         5.15989251037642    6.81488284287287    7.13482930128672
C         4.51635372444210    5.87744336945580    7.56376608891925
C         3.89235532851764    4.69198967864001    7.98259641541078
C         4.45881460442189    3.47010012063065    7.60527327154619
C         3.88571008054634    2.27655511046960    7.99123081791299
C         5.39092327307602   10.07960918153506   10.51812801634060
C         4.43580404067537    9.02255144861159    9.97221714130820
C         3.88697150937468   12.20102272374272   11.78101056494573
C         3.27769130301857   13.59370403933029   11.67636093157418
C         6.12032201425229   12.85314013734357   10.04038709642102
C         7.02261913828371   12.91326253598538   11.26578269683750
H         7.64917143315240   13.07227674937170    5.44827915722657
H         9.64206376172642   12.47702104577354    4.12021824834888
H        10.22168917364469   10.10855297555729    3.74682205748277
H         8.80588325442609    8.32440546406919    4.70195866151836
H         5.35676376746465    3.47903782907525    7.00384702811650
H         4.33569169597627    1.34153381729971    7.69138774242396
H         6.35146884683865   10.01272682786783    9.99940708067510
H         5.55333220224041    9.95015650609460   11.59178387030638
H         3.45081022523408    9.11786808434985   10.43417498351652
H         4.33610134540726    9.16214729548621    8.88885842534753
H         4.80682662942629    8.01541252172482   10.15256538302048
H         3.09860102657406   11.46517972909152   11.96786004390460
H         4.62013104304066   12.13951946617117   12.58941147064359
H         4.05112446430673   14.35825792488015   11.62830423159563
H         2.67027065189633   13.65475104419834   10.76751051861122
H         2.63848837801480   13.80395107330293   12.53138087204257
H         6.67858425830883   12.49385075452184    9.16953261486104
H         5.74144078036447   13.84998617570186    9.78890975061671
H         7.34335594860847   11.91644288871207   11.56051279307324
H         7.91034892662416   13.50207609252986   11.04129446657326
H         6.51756205827863   13.37902594739768   12.10861032497171
P         1.95558532354656   11.73735592108725    6.57566192269825
C         1.22484658509646   10.08147791567876    6.22960755816610
C         2.18092615587257    9.02448702634901    6.77394532468446
H         3.16585916338970    9.12147443988588    6.31220545302895
H         2.28040607278630    9.16251491910169    7.85753389547166
H         1.81088098775717    8.01726636878075    6.59202173859093
H         0.26435526017372   10.01291842869950    6.74820575119334
H         1.06262027823921    9.95346678762793    5.15574271830308
C         2.72712113352426   12.20629359390179    4.97032977018392
C         3.33556361984785   13.59913482762673    5.07771186469821
H         2.56167717608320   14.36314167400118    5.12718320628933
H         3.94280366095450   13.65874123028582    5.98678169241257
H         3.97479167915053   13.81144657055772    4.22321469799948
H         3.51595677307818   11.47129502358384    4.78216957381602
H         1.99415112659288   12.14594694055472    4.16167801622737
C         0.49265155580519   12.85361731462434    6.71104901323756
C        -0.40935508312638   12.91433203328853    5.48546844883821
H        -0.72886401112531   11.91753390260818    5.18932502161812
H        -1.29782119822144   13.50181705261955    5.71051729229908
H         0.09538950098948   13.38181372485590    4.64340369626261
H        -0.06546106579134   12.49263865843706    7.58127434272592
H         0.87050693466686   13.85049643503474    6.96390526232695
C         2.72078206850609    4.69216341831856    8.76659579194391
C         2.09459203174565    5.87776574064582    9.18170400378725
C         1.44886143243312    6.81522602245378    9.60735016911523
C         0.71367905762795    7.83480701842224   10.09326202880517
C        -0.01367226034517    8.68040597951069   10.57584985142028
C        -0.82709938803930    9.68758828434819   11.11877724671325
C        -0.49006563954450   11.04245224510970   10.90663081064206
C         0.65898327354648   11.34746809746875   10.14711787958182
C         1.65955530652760   11.57456228518761    9.49549566698795
C        -1.30280210404819   12.03523593722930   11.45151326140524
C        -2.42174346825927   11.69874227713736   12.18777215093848
C        -2.75196113622565   10.36532707282959   12.39468202954470
C        -1.96092930007498    9.36529625281202   11.86459445353416
H        -2.21023017395176    8.32487320524963   12.02111407661320
H        -3.62887072866082   10.10925891433450   12.97154581604134
H        -3.04408327145222   12.47759353263040   12.60546597170906
H        -1.04323010100078   13.07248094423644   11.28928430132991
C         2.15625205806649    3.47044594250532    9.14735395066847
C         2.73128883747893    2.27672970462386    8.76481198482574
H         2.28285076052576    1.34184698168560    9.06737855293996
H         1.25828691225661    3.47965256864742    9.74875855261500

