102
CSD_code = ULUPAT | q = 0 | S = 0 | Stoichiometry = C40H55N4NbO2 | MND = 6
Nb        2.41025043036869   22.07975802763741    7.88066615175794
O         5.15425701895368   23.27433723871108    6.93566739957737
O         4.11613880841287   19.49680719620720    8.89315384858911
N         3.49333563724837   20.68373747840989    6.97725792243972
N         1.33059941548842   23.92606312016360    7.80046556264846
N         2.20909344701915   22.55373001108416   10.09279722207728
N         0.60352142613564   20.87646309063366    8.00263850896620
C         4.13823560074981   23.00881466336108    7.42522235544570
C         3.57984854279915   20.38301784389289    8.26622118184332
C         4.30269164016588   20.06387810189077    5.92524200994257
C         4.09672534465092   20.83547654216845    4.61645675760167
H         3.06972943806557   20.73503817195533    4.26807351674277
H         4.76028617908463   20.44580304493414    3.84712812492112
H         4.31288966738622   21.89292969814694    4.76388726593088
C         5.78510002064793   20.09793199255047    6.32873499602887
H         5.91607029244713   19.59951555718943    7.28648778427114
H         6.13249254911041   21.12420451348544    6.41861461384090
H         6.38668615662740   19.58838481999844    5.57930833593789
C         3.86827360768493   18.59917374015171    5.74808706406855
H         2.84459648668383   18.53881765391043    5.37880683597758
H         3.93646709122928   18.08059755747573    6.70237077800895
H         4.51964976857804   18.10243902500906    5.03264715371512
C         1.53892259360830   24.52956555718050    6.53321569272882
C         2.48773651888825   25.56866927334945    6.42720452750795
C         2.73038631932709   26.12673318492382    5.18143052297486
H         3.44717840680023   26.92699369494491    5.08680931458613
C         2.07164104092176   25.67660253847654    4.05194601261215
H         2.28529315248045   26.11613597037455    3.08895961391248
C         1.13013961541159   24.67418374892854    4.16344674812336
H         0.60574459200199   24.33817387939800    3.28141924516221
C         0.83532009286207   24.10537338899465    5.39562302498537
C         3.21508486396088   26.09688026228331    7.64736137146941
H         3.18046984951572   25.32423500172388    8.42660414308903
C         4.68327541813106   26.42559570747283    7.36482683695001
H         5.16918781382721   25.62010219854025    6.82246897742258
H         5.20856063249856   26.57264038189954    8.30622836082281
H         4.77693254731103   27.34116745810030    6.78549180403894
C         2.52178971225529   27.35392945444550    8.18652023202703
H         1.53178743909458   27.12487174946798    8.56674158913838
H         2.42934842038803   28.10142877438127    7.40067842681818
H         3.10789454067352   27.77743091338440    8.99934141916962
C        -0.25470555946696   23.05989509628123    5.49136165635915
H        -0.42463816540311   22.82760652712376    6.54896870609819
C         0.16943251444924   21.77485321302704    4.77626362249784
H         1.10577405199597   21.40178988864380    5.19742566909882
H         0.32179248702496   21.95983124484702    3.71462246773497
H        -0.59641889365068   21.00746684961703    4.88588939731019
C        -1.57748838749767   23.57692301928132    4.91954705213101
H        -2.37253158486347   22.85951970467903    5.11590726318936
H        -1.51106267472187   23.72265514761336    3.84443623460199
H        -1.84842042221476   24.52696667254378    5.37521065659912
C        -0.51983529084306   25.52281862936670    8.14665836956330
H        -0.16638418716129   26.05186853330142    7.26422367558265
H        -0.77956422904805   26.24116676336634    8.92043079531261
H        -1.42915897558996   24.98434981998679    7.87237795060906
C         0.50466365726666   24.52828638603524    8.64675778720053
C         0.50918514502147   24.24790182695761   10.00455488568982
H        -0.19355551224114   24.79344921368919   10.61839523019210
C         1.38948059422411   23.38902113914049   10.68602080411197
C         1.31363667500656   23.50210655850680   12.19301244571226
H         2.09048278769552   22.92197479375844   12.68190908099967
H         0.34062293014155   23.15224437741320   12.53588441748720
H         1.40908984337489   24.54641708269760   12.48635682422231
C         3.07095894582618   21.77178521429519   10.91182969551447
C         4.37475183900542   22.22444151844254   11.17197400672633
C         5.20991167225740   21.46021193725896   11.97385730981641
H         6.21069565285970   21.80644458848187   12.18093654584392
C         4.78334322347445   20.26384505956683   12.51409551265197
H         5.44884291210154   19.67616087850100   13.12896175477319
C         3.49892446860066   19.82672722902264   12.26494902258551
H         3.16652667451657   18.89261452423689   12.69091953885440
C         2.62569530815981   20.56764908811000   11.48188607087999
C         4.88059933235759   23.53958889446204   10.62209247306697
H         4.16801186338290   23.89531339380594    9.86818463261089
C         6.24032986376826   23.36215668462914    9.94225705662723
H         6.21751028411451   22.49278978146680    9.28912584272067
H         7.03171908618395   23.22401533674119   10.67475374356393
H         6.48037594787391   24.24013392270967    9.34669955318374
C         4.97023871874928   24.58981047561093   11.73336011936071
H         5.35455057518205   25.52605039570328   11.33369759384938
H         5.63602227389371   24.25407197955058   12.52543054772081
H         3.99039947905290   24.77635242546280   12.16546628842117
C         1.22066944827288   20.04999570823585   11.27069849209675
H         0.68117895599864   20.75705863535036   10.63410826652392
C         1.25271206854035   18.69091282676646   10.56679423859045
H         1.90915617456752   18.73220724793365    9.70171606481679
H         0.25219479300271   18.40562860818651   10.24415535711891
H         1.62860815697569   17.92079507318063   11.23568598175739
C         0.46067093386125   19.93125392871042   12.59524613021629
H         0.44275060690253   20.88109168341664   13.12317135654205
H         0.92662064619321   19.19344541326621   13.24354259025408
H        -0.56543221275611   19.61971335485402   12.40748663124437
C         0.52656719238063   19.66288373976871    7.42368013288702
H         1.44740557052905   19.27920932544903    7.00104497493714
C        -0.62309420527509   18.90710373575594    7.35376500006922
H        -0.59847853161516   17.94232399664901    6.87065823781527
C        -1.79887118272435   19.39537194033066    7.91335279385927
H        -2.71652337797397   18.83007597038661    7.87727289825523
C        -1.73618999996549   20.63810431381651    8.53030131416686
H        -2.60891191104262   21.07030639309832    8.99631166521675
C        -0.54173636147595   21.32727616420576    8.55555773113704
H        -0.49143382782819   22.29003389731186    9.05020458752831

