50
CSD_code = ULUPUN | q = 0 | S = 0 | Stoichiometry = C13H32CoOP3 | MND = 6
Co        1.86133041847486    1.36927498508706    8.13742125012747
P         2.97824131246834    2.46566669573653    9.93021444029420
P         2.75604542679007    2.49798884098633    6.45010141158064
P        -0.18970205956847    2.20366039999428    8.16697196159448
O         5.27899540278826   -0.08310571475658    8.19670335146339
C         1.18221431380524   -0.25930754039235    9.16750248243589
H         1.81469186954719   -0.37069394549039   10.03896899683736
H         0.14480429647605   -0.50356596855797    9.37657824999868
C         1.67377046960835   -0.60255363952532    7.89824682075935
H         1.00258393199271   -0.98456104236363    7.13323216309834
C         3.01811163290790   -0.34494350140473    7.55876007064138
H         3.32073985043643   -0.52114794627764    6.52895640838392
C         4.10097614759734   -0.25476723184581    8.48914564247838
H         3.83316537999616   -0.40020923567419    9.55640327985781
C         2.87006569079148    1.76342763549408   11.62923964961101
H         3.28428500365307    2.45907071540988   12.35794009682093
H         3.42796341513934    0.83024494802444   11.66895288112105
H         1.82798007415084    1.56076589152663   11.86959543150927
C         2.41049468294411    4.17869920039268   10.32541296844212
H         1.37809208839052    4.14791734631341   10.66472337544674
H         2.45803402104833    4.79048414208416    9.42760918841293
H         3.03346980886925    4.62263671440565   11.10074550053821
C         4.78411101399977    2.80772728172768    9.86765543858911
H         4.97031464622648    3.57858702751101    9.12167160213592
H         5.31764840211745    1.90692160506809    9.57293118404486
H         5.14434119931763    3.14943009538084   10.83754136446259
C         2.73523646083519    4.33772668493345    6.30946384284406
H         3.29239440129444    4.75850494343909    7.14451636964056
H         1.71843114097567    4.71673895636903    6.34328770510767
H         3.20571088415707    4.64505812858555    5.37588102339719
C         4.54008692207274    2.26204555691184    6.10498267015239
H         4.79317754495366    1.20612779014803    6.09511852765651
H         5.11666321061744    2.72665688671735    6.90164062371660
H         4.80147652603673    2.71842623635815    5.14997623948873
C         2.04938686370199    2.06435150035063    4.80825161260801
H         2.57528963160267    2.58335259948598    4.00770311148282
H         0.99480618982123    2.33338939739011    4.78716222661728
H         2.13460871927017    0.98952970606392    4.66253469887601
C        -1.40490972938146    1.21168834610632    7.20827638300945
H        -1.42272391172453    0.19545016429621    7.59424737934810
H        -1.09378386710561    1.17944637137136    6.16606818300165
H        -2.40100781249285    1.64693234792460    7.27923177723759
C        -1.06704787419381    2.27179622269934    9.78314390123014
H        -2.11235170728888    2.54184267845811    9.63780423832800
H        -0.58708817471251    3.01237851132203   10.41851621383099
H        -1.00490948462147    1.30565625597200   10.27579223254327
C        -0.66073895174964    3.87672828481582    7.55070989447817
H        -0.44583370918758    3.94302323242417    6.48635265188400
H        -0.08191984365964    4.63225690164062    8.07769418630641
H        -1.72272186918931    4.05654453736141    7.71361909652617

