56
CSD_code = ULUQAU | q = 0 | S = 0 | Stoichiometry = C15H36CoOP3 | MND = 6
Co        4.13600839603612    2.94192481496042    2.95550567557010
P         3.96821002437054    1.11332007602150    4.16927177187602
P         3.67822710073070    4.61037415259135    4.67158769597028
P         6.34279137461642    3.08253516840721    2.81362640609059
O         2.23406439813801    5.54061343207846    2.12522549438050
C         2.21290976713393    2.60918668995897    2.29859093812838
C         3.11822829177641    2.78634567723287    1.25039974670627
C         3.82309995211529    4.02676955632722    1.17626983536065
C         3.23930136167041    5.31767587993791    1.45858869120564
C         3.38290434789189    1.72561848262940    0.21734209973824
H         2.77630359547311    1.94123179356215   -0.66511141477509
H         3.11106824423170    0.73760688130144    0.58039094346635
H         4.42784568514785    1.71532830792262   -0.08935807737290
C         3.96366585630968    6.48130487676867    0.78819805444738
H         3.49618556252518    7.42165821111627    1.07192152460749
H         3.90755918824910    6.37260135687168   -0.29370503099729
H         5.01137058100794    6.49383203234082    1.07714467964162
C         3.82260929874562   -0.46754296828804    3.23687825257191
H         3.78402844244431   -1.31628868569871    3.91888490647639
H         4.67459789066491   -0.57482347296441    2.56890576636598
H         2.91432199178812   -0.44433817051914    2.64015933777421
C         2.47781578396271    0.95274838213486    5.23538502835561
H         2.43386411629423   -0.03768120562142    5.68786135493994
H         1.58621796801416    1.12268735170729    4.63841191169451
H         2.51577073114078    1.70774886043202    6.01703496973573
C         5.22200365198791    0.56152600161401    5.41048935092453
H         4.88637500105695   -0.34493106915719    5.91319088216452
H         5.36971472119564    1.34610339680080    6.14907092418750
H         6.16917148938618    0.36405230912637    4.91323131023615
C         1.93561983982264    4.94978226422837    5.14094494939517
H         1.89139139669752    5.65207774322592    5.97259736460819
H         1.44582232159980    4.01877538281396    5.41814974125228
H         1.43347368673227    5.37085172023139    4.27474558795788
C         4.34556023276858    4.29825438748030    6.37109029544926
H         4.04872551285570    5.09297681003426    7.05419863011515
H         5.43034881931932    4.24382242525395    6.33457343702293
H         3.96670749394747    3.34944127854473    6.74262670562696
C         4.26906552742514    6.34682575503014    4.50446304446426
H         4.06723531824593    6.91082343921253    5.41439858809566
H         3.75052627119886    6.80910941609061    3.67066105249770
H         5.33913123713345    6.35128300466698    4.30402981307994
C         7.40365856750676    3.29265300218037    4.30827308743357
H         8.45742045161461    3.20137729905290    4.04713644414875
H         7.15080855450303    2.55140209129461    5.05989941894194
H         7.21967770641014    4.28289538650997    4.72067405610190
C         7.12908181081217    4.40831393148794    1.80562493828382
H         8.21479401276620    4.34944429454175    1.87721732232953
H         6.79514941106460    5.37607864289676    2.17395308498003
H         6.83208839836969    4.30940972206036    0.76475827643804
C         7.18503769766229    1.63257104686840    2.04960330619919
H         8.25948226019712    1.79553408735850    1.97358275184580
H         6.77148260678040    1.47306295977612    1.05583856977794
H         6.99066773380267    0.74477787678948    2.64713985798180
H         1.65144411289209    1.67935221870489    2.32620999573122
H         1.67072524025254    3.46632891650312    2.67160188127146
H         4.59023896351238    4.07198677756501    0.40451476949852

