26
CSD_code = ULUQOH | q = 0 | S = 0 | Stoichiometry = C9H13Cl3Ti | MND = 8
Ti        1.36232090940437    7.82373616700096   10.40612060179499
Cl        1.92207240550979    6.52615055753287    8.77849007966334
Cl        3.07770300213096    9.12633046071922   10.40597176127870
C        -0.79668834130548    7.69320823948046    9.69324918428964
C        -0.24856596677186    8.93203363666623    9.25302753431798
C         0.07506844488021    9.69401629297373   10.40610506885254
C        -1.39048502104205    6.62938644300455    8.81947675513785
H        -0.97789028443286    6.68286153749791    7.81385268787632
H        -2.47313077828691    6.76045557174352    8.75753202933145
H        -1.18945643148887    5.63707590804487    9.22329475961891
C        -0.09688748623832    9.38370840290264    7.83153110449794
H         0.41091072579005    8.62178941225718    7.23650018602093
H         0.48607543121023   10.30299772221826    7.78989414909776
H        -1.07531904404100    9.57027307248330    7.38457975987465
H         0.42095015860283   10.72139725301742   10.40610595802601
Cl        1.92201464631352    6.52616172796066   12.03379181230059
C        -0.79668806475959    7.69320499633984   11.11895491614320
C        -0.24857657192573    8.93203481838314   11.55918083851606
C        -1.39048228748893    6.62937596568933   11.99271945188073
H        -0.97789311515387    6.68285042553554   12.99834646779484
H        -2.47312930262863    6.76044053109965   12.05465792630666
H        -1.18944796005483    5.63706784883413   11.58889699044928
C        -0.09690212653290    9.38370633089577   12.98067786429620
H         0.41097887829678    8.62178169520557   13.57569319848269
H         0.48602102312717   10.30305378827701   13.02229390136100
H        -1.07537284311409    9.57020119423627   13.42765501278973

