46
CSD_code = ULUSAW | q = 0 | S = 0 | Stoichiometry = C21H20N2O2Pd | MND = 4
Pd        3.83874338812644    1.00962015685238    7.24079333833988
N         4.54822216550375    0.66594361355962    9.13209446585674
N         2.41259323008269    1.34814958517873    4.54079462714356
O         5.81073556008596    1.92194866883343    6.76252940289123
O         1.36567528791751   -0.44442117718119    7.20166451740862
C         2.24963481016255    0.03866412257606    7.87712370804953
C         2.28213883819773   -0.01397054248364    9.35408835217537
C         3.48878449412124    0.37759698866411    9.98099767530608
C         3.48967518957207    0.51603697746031   11.37234282243763
H         4.35172525289904    0.91497423122084   11.88272011897312
C         2.35729956836992    0.20309671244015   12.10320906597640
H         2.37570681648850    0.32715039668312   13.17652672701585
C         1.20476491278300   -0.26021561161074   11.48553505571564
H         0.33640173507960   -0.51075169167795   12.07537886269998
C         1.16591728566163   -0.35875672163779   10.10671829475101
H         0.27048825626055   -0.67149814045587    9.59036216588512
C         5.83265012363199    0.52146026890813    9.45345532240073
C         6.87768234445461    1.06586866650162    8.71069507565876
H         7.86907704145113    0.92428384123674    9.11690574780191
C         6.81287335509275    1.77993289821492    7.49996854062480
C         8.11463411718074    2.40448662397258    7.03119338714833
H         8.84312912676834    1.62480530658148    6.81715767947025
H         8.52438443095876    3.05129456417256    7.80376476559183
H         7.93711214197597    2.98326490600519    6.12848499863922
C         6.25533639763339   -0.29611570485003   10.65336778147365
H         6.52271652375074    0.34794072985390   11.49020048652462
H         7.13784808787093   -0.87724072553010   10.39263266719706
H         5.46868718612571   -0.97781343974910   10.96782473184811
C         3.02102279653441    1.29178778235494    5.53509702892748
C         1.63724548751243    1.39380898632151    3.43143205874903
C         2.25007935152079    1.42223384138815    2.17256572952080
C         1.43194495554121    1.46176977098079    1.05527647432945
H         1.87863076411073    1.48336080605584    0.07241813918336
C         0.05332389908277    1.47114009798986    1.18890305706084
H        -0.56939077074983    1.50110646405829    0.30746219675783
C        -0.53271015665458    1.44066719573025    2.44329481003622
H        -1.60858674059077    1.44619596584140    2.53504974441496
C         0.24419993574921    1.40167061866790    3.59033709511245
C         3.74229917417596    1.40161206255831    2.07468231586522
H         4.06204809421963    1.43949165980606    1.03700473179668
H         4.13873535435452    0.49553917952671    2.53330038270212
H         4.17194568031055    2.24908398550540    2.60860280335362
C        -0.34651615431910    1.37600824697072    4.96124370639731
H        -1.42950641856154    1.30546474552111    4.91393819109311
H        -0.07663926356979    2.28198227134065    5.50573424710508
H         0.04423634304859    0.53424081567391    5.53362690256343

