91
CSD_code = ULUVUU | q = 0 | S = 0 | Stoichiometry = C43H41IrN4O2 | MND = 6
C         1.07412595298627   -0.14956332014197   12.00588040465902
H         1.23907246409324   -0.56033012199474   13.00299539641123
H         0.30544155490267   -0.75272932070791   11.51752282367611
C         0.54550207198434    1.31948145371106   12.11498858841546
H        -0.14445684494148    1.48028846293826   11.28870087908629
H        -0.00600430436713    1.42448652036064   13.05240445867002
C         1.68136715300282    2.30993019431204   12.02047560763455
C         2.79310889115213    2.14550190191205   12.83790381805285
H         2.70677498997082    1.55606484514524   13.73780856506403
C         4.02673571771543    2.61155976072307   12.43988204201062
H         4.89047781353046    2.41144238038282   13.05785813607125
C         4.20824390217091    3.19031040380647   11.18253292655269
C         3.08634700774519    3.66157282136417   10.49248138429554
C         1.82903860935765    3.24834364424289   10.98956486663625
C         5.60022132772287    3.13482574527543   10.61184696559524
H         6.32005055475326    3.30659830120184   11.41389703124127
H         5.72610919319521    3.91112301611651    9.86277628841070
C         5.90818422780848    1.73706216253577    9.96031027700326
H         6.02448657174583    1.87281800496512    8.88544230455213
H         6.84906732826984    1.35601136294640   10.36011726505286
C         4.78995980396939    0.77673665024953   10.23428612901416
C         3.62822154556116    0.85764843400052    9.47417918704330
H         3.63335029976743    1.40379894431507    8.54549662619402
C         2.43144505594886    0.38881102496537    9.97078498641201
H         1.52224208029556    0.56570393523300    9.41444213562731
C         2.36921822506076   -0.17180355256869   11.24234317939298
C         3.56813560189033   -0.50253835764021   11.86150939396067
H         3.55611984455892   -1.03635920348660   12.80201096836068
C         4.77090670363672   -0.03312721897059   11.36210434395100
H         5.68237272416370   -0.20876265079651   11.91641428206089
C        -0.12258793843693    5.22963471321670    8.94508156322041
H        -0.14226716775395    5.93352875583026    8.13719453580516
C        -1.16811646046514    4.76840840133254    9.74329974111580
H        -2.20201490914340    5.03891310134381    9.68282551618616
C        -0.58513578892721    3.89666464057401   10.63873748066228
H        -1.02658945961459    3.36855843819754   11.45679504313195
C         2.05229848095062    6.86067901894554   11.60130808066945
H         1.97651697870250    5.78035110736915   11.51961224569495
H         1.04999122738482    7.28005537751864   11.70344018893736
C         2.87274488736263    7.19551429354960   12.89459161597525
H         2.45590070743172    8.08215165611140   13.37463013604171
H         2.77796145256554    6.35532605943260   13.58414671969535
C         4.31026209858568    7.45212983665977   12.54512539744969
C         4.83382000743502    8.74006148228218   12.54280012261611
H         4.31602209465356    9.53158647642942   13.06639083114522
C         5.93558566550402    9.04975452408125   11.76707889938358
H         6.26492620262123   10.07645571635889   11.69212913340389
C         6.52825198944315    8.07416753848893   10.97403330988903
C         6.17426285680019    6.75012871831435   11.20601490018990
H         6.69708409570706    5.96016140128753   10.68628007136250
C         5.08061746812120    6.43873091485700   11.98793175503905
H         4.74891083486756    5.41556020521693   12.06219118645357
C         7.28184272684534    8.43785526341469    9.72600678908870
H         7.75805920669722    7.54426793393097    9.31841120750957
H         8.05513858514979    9.18450376258115    9.91528114946128
C         6.27403806377448    9.02130152150687    8.68389527801084
H         6.20514088122702   10.09846185432359    8.84587959773365
H         6.66453070281051    8.88232104004970    7.67620382419615
C         4.89294357595772    8.45138100418679    8.89583194572764
C         3.96775488874352    9.28269214052441    9.52163967821165
H         4.14483572419968   10.34836379951862    9.53489439841554
C         2.91928015278285    8.76832366896543   10.25386602906977
H         2.29420177895579    9.43725979297054   10.82793949681975
C         2.74989550150353    7.39404307768941   10.37768577864930
C         3.42415703919214    6.56156400788221    9.47944740003043
C         4.50434128822694    7.11208133147218    8.75921555748406
C         6.22234529278317    6.23749548647941    7.11741586001901
H         6.75961361294769    7.13702674440010    6.91452150666124
C         6.40901331134669    4.98492030858027    6.57137214696461
H         7.14786538379968    4.69430248879340    5.85330243001100
C         5.42992357631382    4.18575177636681    7.15489936170335
H         5.22250992082431    3.14531233598813    6.99978132084525
C         2.00209102393299    5.33766682764486    5.80404514096691
C         1.76749073765762    3.99008655564465    5.51593942203327
H         1.41844269689414    3.75775285691193    4.52045060925290
C         1.94047806575546    2.91494123003805    6.39083353971878
C         1.74392739664762    6.31747417977576    4.67107121309085
H         0.71085584190935    6.24097057167111    4.33826319928733
H         2.39234222567463    6.08941087759246    3.82740446490088
H         1.94004818158656    7.33110889641756    5.01247347280666
C         1.61039053800862    1.53993212377041    5.83168166923801
H         2.19792621748242    1.34739028262235    4.93634900927039
H         0.55645080490847    1.49360492449633    5.56385174466821
H         1.82503102968484    0.77652171519632    6.57599759944970
Ir        2.88610258690150    4.74223624131274    8.74539889557088
N         0.72926820149393    3.84070243284611   10.34703956820216
N         1.01127786627063    4.66906488172009    9.33863411890398
N         4.71157394552627    4.91069041441960    8.00259530903676
N         5.18852011237785    6.16278653172441    7.97444418011255
O         2.33692250849651    2.95355549072658    7.57994031827818
O         2.40201741321808    5.82604502404819    6.88589603340917

