57
CSD_code = UMACOB | q = 1 | S = 0 | Stoichiometry = C24H24CoN6O2(1+) | MND = 6
Co        9.50450511596841    8.41200525282457    9.50450005820726
O         9.82172862288993    8.53100909582353   11.36474541347316
N         8.83179464240764    6.70945675285254    9.87772837568745
N        11.42240089843266    6.83834351716283   11.53954418153000
H        12.02287735207309    6.61626212190161   12.31517447540294
N        11.33039103129316    7.62156199110065    9.33592072581464
C         8.09494044135221    5.92856641421571    9.09373347773521
H         7.90013877570829    6.30905526851549    8.10144448575064
C         7.62550193654049    4.69812428969161    9.51838962559730
H         7.03053974166881    4.09139113369847    8.85518709502365
C         7.93089253147427    4.26542543140774   10.80032325781349
H         7.57307044726198    3.31359192557583   11.16105507969416
C         8.71133105227723    5.07678518463431   11.60967320140578
H         8.98032109137725    4.77786041296847   12.61028019647237
C         9.14413905401373    6.29227481347746   11.10963301643899
C        10.04690895274579    7.28942592987801   11.82343753089322
H         9.92207036130331    7.23332546967309   12.91838758277031
C        12.02300800961524    7.07003729963262   10.34883647866438
C        13.38369382882602    6.68262561553045   10.19820032361956
C        13.98064130843205    6.85736514709618    8.97406903499011
H        15.01189168720583    6.57380517877943    8.82913318394912
C        13.24126185435878    7.38710993419497    7.91761944928804
H        13.67706558380823    7.51268257829947    6.94112134494953
C        11.93944185090693    7.74860759414868    8.14498006257338
H        11.32725943677085    8.13602743922110    7.34599205203098
C        14.13396353665292    6.08796097952656   11.35064774200747
H        15.14874917072660    5.84839342948107   11.04577363575169
H        13.65753905832053    5.17031871957146   11.69501757630267
H        14.19055492041409    6.78592856613869   12.18663238016319
O         9.18728216000993    8.29300170154619    7.64425475755832
N        10.17721265834207   10.11455370235441    9.13127236318182
N         7.58660149755089    9.98566008189204    7.46945482027366
H         6.98612186426517   10.20772332319858    6.69382163400210
N         7.67861690586284    9.20244697826170    9.67307985718360
C        10.91406604362763   10.89544477399193    9.91526733802861
H        11.10887338460003   10.51495322726534   10.90755418003694
C        11.38349558892607   12.12589144045801    9.49061445024659
H        11.97845728244766   12.73262509212576   10.15381698084127
C        11.07809651193001   12.55859428542042    8.20868420925826
H        11.43591168883349   13.51043137192625    7.84795484498823
C        10.29766037749051   11.74723287551391    7.39933361860610
H        10.02866491974386   12.04616017379196    6.39872880466440
C         9.86486151930683   10.53173858954976    7.89937035925404
C         8.96209654830197    9.53458446578505    7.18556388219471
H         9.08693678600548    9.59068701241261    6.09061409823788
C         6.98599445283762    9.75395996923293    8.66016162781620
C         5.62530363905113   10.14135498027792    8.81079497794559
C         5.02835815307803    9.96661531858659   10.03492724925852
H         3.99710404268744   10.25016303871353   10.17986106562585
C         5.76774426287977    9.43688700562459   11.09138043229778
H         5.33194253172304    9.31131635995243   12.06787968369736
C         7.06956827093715    9.07540264616434   10.86402175278249
H         7.68175598343273    8.68799490588923   11.66301169186794
C         4.87502705902341   10.73600447860617    7.65834427733746
H         3.86023561510289   10.97555293423771    7.96321427232822
H         5.35143581731616   11.65365573870088    7.31397645926970
H         4.81845213985885   10.03803604149654    6.82235926721586

