71
CSD_code = UMADOD | q = 0 | S = 0 | Stoichiometry = C35H28Br2N2O2PRe | MND = 6
Re        2.81369136767382    8.74321071617974   12.27834912196269
O         2.20086951389456   10.39270824115107   13.23360308917811
O         2.56235153178518   12.45701587272437   13.94635706613353
N         4.30862729506378   10.23409845124158   11.86936805103034
N         3.72509911583427    7.41663880899471   11.57589240508857
Br        1.72151305578041    9.47711012486126   10.14919886384211
Br        0.82848613929915    7.39698486652900   12.87010307092799
P         3.65577335421308    8.35712593640966   14.57235960261080
C         4.61045122440551    6.81911067291145   14.73389076049457
C         4.04580102855480    5.67008873873634   14.18316606755101
H         3.07531717315708    5.72560002753399   13.70843626622083
C         4.72493187070564    4.46814743959693   14.24451080675240
H         4.28496075160208    3.58260669787837   13.81224270807319
C         5.96765129977354    4.40433296374609   14.85467547728008
H         6.50240831700219    3.46728120155700   14.89654775918186
C         6.52244594706437    5.54100388945098   15.41922674261247
H         7.48479643938874    5.48948571303592   15.90728145198139
C         5.84789078374647    6.74829261160646   15.36410947867253
H         6.28085912804515    7.63064479013539   15.81488421416455
C         2.45372096301036    8.27567592731177   15.92919421633346
C         2.66286945883096    7.40127635930105   16.99272359697360
H         3.53209810813806    6.75923800801607   17.00482129720790
C         1.75020056403492    7.35197236148388   18.02972698430674
H         1.91369280835892    6.67083952100340   18.85168773464717
C         0.62817016091344    8.16447877837642   18.01254224523813
H        -0.08492230965508    8.11587799896970   18.82182731609868
C         0.41680108369393    9.03255928575322   16.95462805154552
H        -0.45963927118226    9.66207071068389   16.93388752946218
C         1.32418663159672    9.09016535325582   15.91334531375777
H         1.14522511752385    9.76513658050871   15.08860177940376
C         4.79083560280098    9.70097465813338   15.01138559442720
C         4.40945846736419   10.72778131676209   15.86786530962614
H         3.46570791093997   10.67227360982278   16.39223811045196
C         5.23280856625104   11.82807635224647   16.03428336324490
H         4.92435577665278   12.62919455764571   16.68809820173092
C         6.43420256731459   11.91067476417984   15.35159574226522
H         7.06679870294968   12.77714838223848   15.47243028033389
C         6.82443109159686   10.88462581318560   14.50346796732056
H         7.76099298670387   10.94898824758491   13.96859617191978
C         6.00324066396899    9.78935039587709   14.32525838338547
H         6.28478566406921    8.99694711278166   13.64199114729623
C         2.85871356076946   11.48173450170840   13.28496104280023
C         4.12018942759731   11.41750294579576   12.42552936759462
C         5.02264404395442   12.49291675838397   12.24781015221318
C         4.85951300393852   13.75582177564102   12.85296536686952
H         3.99687126720962   13.92261193304910   13.47703729702019
C         5.78779207435568   14.73928152420576   12.64610727985034
H         5.65986491203025   15.70438213197594   13.11266151484190
C         6.90708352510319   14.51465037662142   11.83028212931052
H         7.62355783473279   15.30880605314087   11.68097099249785
C         7.08821739528811   13.30168588894751   11.22402032925975
H         7.94257324238067   13.11891156817472   10.58869794985416
C         6.15558393798330   12.26623999296413   11.41704578567873
C         6.29033972858748   10.99757030785656   10.81366448134855
H         7.12352576232068   10.79818835492326   10.15792646781751
C         5.36484410573690   10.02855410767751   11.05958024175026
H         5.42769303753770    9.04750433221003   10.60864879318535
C         4.38268934675310    6.37887235389312   11.06339472001913
C         3.70447004219427    5.50139095172422   10.19182272742428
H         2.67419012672281    5.71821362186518    9.95436756418977
C         4.35716098036442    4.40785075674395    9.67670840842869
H         3.83013087023056    3.74126531570722    9.01021150463361
C         5.68793580010293    4.13927506842422    9.99908956639741
C         6.35557058154194    5.00802260644233   10.85884887134022
H         7.38585748528164    4.81198701766019   11.11873182259997
C         5.72671173980418    6.11329714981755   11.38483882043968
H         6.24510742220471    6.78039833323991   12.05779716870010
C         6.36808998618058    2.93193902434659    9.43897105146562
H         7.43943634541582    2.96539911835347    9.61815994461772
H         6.18992042837847    2.85516398588133    8.36816729009513
H         5.96887533243026    2.03064828321548    9.90428200702235

