75
CSD_code = UMAFEV | q = 0 | S = 0 | Stoichiometry = C36H30Cl2N2O3PRe | MND = 6
Re        4.29647031781106   19.97011045373289    3.28555609531897
N         5.05382538301785   21.28619379579261    4.96740405996689
N         3.04830079639309   20.98343325334173    2.58830814868326
O         5.75145372689053   18.95621494313504    4.12236385794033
O         7.64095597456391   18.92922199752278    5.30556787482536
O         7.44200291539715   23.62518274866778    7.42069877285200
P         4.25651257219185   18.15990504722594    1.68869447873295
Cl        2.87132845291960   18.86788300550993    4.81564469145595
Cl        6.04682213113607   20.92082509644785    1.95939517932638
C         4.68748304518998   18.60636561716668   -0.01904748882848
C         4.13427784172796   19.77514404845820   -0.53199615502431
H         3.52632223758817   20.39212842504565    0.11562107135061
C         4.38687234829181   20.14466975324370   -1.83875805696575
H         3.96689495168981   21.05900802392833   -2.23068526456008
C         5.18644961964163   19.34609061406264   -2.64154603986064
H         5.39337024258182   19.63874232571473   -3.66034598771365
C         5.72546225117239   18.17484990031436   -2.13712261008171
H         6.34819743448544   17.55232611038671   -2.76295807262284
C         5.47613008932951   17.79859309453227   -0.82855401276830
H         5.90641839424306   16.88676026733734   -0.43808396475436
C         2.69259390153532   17.27595602247831    1.41828051332113
C         2.69225707762590   16.08803636009606    0.69273021236194
H         3.62492201004505   15.67581140345667    0.33248408106661
C         1.49917498836873   15.43690635153862    0.44275815837846
H         1.49818884650288   14.51050936032637   -0.11274322656401
C         0.30597268852708   15.97091532219076    0.90510669244782
H        -0.62336976322320   15.45618653227692    0.71052943684792
C         0.30531651941213   17.15919809349119    1.61619511913323
H        -0.62423018581296   17.57275754414726    1.97730939786557
C         1.49645414837194   17.81614725290580    1.87195206195307
H         1.51907212497852   18.73353491271224    2.44316163345096
C         5.46138237271474   16.92698907493583    2.21817689817842
C         5.06500762873320   15.81420230360248    2.95264990963171
H         4.01367215371624   15.63254157846244    3.13002865320583
C         6.02454158377781   14.96261185023831    3.47075895553844
H         5.72016763066390   14.10039989959412    4.04612369934926
C         7.37007817002880   15.22789704040901    3.27596047244136
H         8.11497432169770   14.56965882415790    3.69836463296744
C         7.76555701348860   16.34963849586747    2.56336625781451
H         8.81516221289249   16.56974089541237    2.43778268643077
C         6.81643974661250   17.20416815119921    2.03764725604162
H         7.11276400634061   18.10422061204634    1.51386508304223
C         6.61622100153939   19.44554039198626    4.90934051671914
C         6.22008331746582   20.84717934221059    5.38732434895509
C         7.07644537090660   21.55315303284144    6.23054655752702
H         8.00643227358304   21.07553891279724    6.49249688415422
C         6.70147047078121   22.80924895424583    6.65483652565792
C         5.41181682950667   23.28902045339131    6.26985394108656
C         4.91868422064010   24.53127932632179    6.70908353533610
H         5.55449487454134   25.13681393903551    7.33571130394843
C         3.66365719378100   24.94725932173976    6.35667996370699
H         3.29231721077102   25.90169633955158    6.69780643128826
C         2.84761690915661   24.12701505360867    5.56678815180247
H         1.84815347095682   24.44974792753641    5.31705831890447
C         3.30384798151947   22.91830413749317    5.11604970583421
H         2.67612938148648   22.26319376779060    4.53242889655258
C         4.60162476254535   22.47797043013526    5.43296034292849
C         8.72667960915373   23.19152640313793    7.81605094510914
H         8.66887294144065   22.29211788632942    8.43506781713619
H         9.14575319832404   24.00912659142890    8.39973673970963
H         9.36301413890085   22.99645103857284    6.94870869492051
C         2.14216172525669   21.81132789053785    2.05249753610935
C         2.54893295264452   22.82063800812207    1.15805718746235
H         3.60092006772379   22.90600561051803    0.93206230991832
C         1.61545966506946   23.66732060960096    0.60710809948918
H         1.93594286039298   24.43956955408032   -0.07712203076988
C         0.26085944694066   23.55076823448425    0.91747887117431
C        -0.13792834724181   22.55532589152552    1.80665504486731
H        -1.18388740892262   22.45820194022675    2.05913563725085
C         0.77653105007177   21.69557309394828    2.37211874941051
H         0.47436521860405   20.92982583121053    3.07035936472605
C        -0.74059881044152   24.46768801143334    0.29100617362737
H        -0.34304257517378   25.47685428865698    0.20940210566277
H        -1.66170008671058   24.49352471026896    0.86735132464449
H        -0.97968083803127   24.12241667182045   -0.71538515796456

