69
CSD_code = UMAJUO | q = 1 | S = 0 | Stoichiometry = C21H35BN7O2P2W(1+) | MND = 7
W         2.96482920545879    4.04757745304472    4.09098514892342
P         0.96522797370739    6.72795971052645    7.69944968516872
P         2.22736806050920    5.84569781452942    2.50220216190801
O         3.25986353978823    3.31338023850444    8.13567123781682
O         5.57889957236941    5.35442797705623    4.47763528053625
N         3.72003555277350    2.11476370655480    4.75305804365746
N         3.38658360518769    1.00025062108749    4.08742297350274
N         3.83300492799787    3.21208538229173    2.30096411210243
N         3.51640175780485    1.98796961590804    1.87111384588794
N         1.15629628580492    2.94280729455141    3.51368701892593
N         1.29080583817869    1.73646069498117    2.95254904002009
N         4.50460910355843    4.84626398129286    4.39501525881079
C         3.13831374065995    4.17294908711763    7.27049359704104
C         3.98223631011656    5.43935800552478    7.38516366937630
C         3.51860136553425    6.63902375662218    6.56022388446871
C         2.04619961893817    6.53875305612038    6.19535244696252
C         1.69504349659182    5.23130813753582    5.50670476746540
C         2.19384704423710    4.04097242921346    6.17955990469604
C         0.56652971851487    5.22706938797511    8.62707796029568
C        -0.62479695971102    7.39562909301397    7.12701324363374
C         1.62765686527634    7.93755673911326    8.87986676122836
C         3.98791253842723   -0.05951859972691    4.64871866151302
C         4.73790208261373    0.38437438788707    5.71610201154067
C         4.54098986590677    1.76307868062213    5.73441621845183
C         4.25709361528429    1.67616933675941    0.80016923437284
C         5.08623825068722    2.74453714489578    0.52086005234058
C         4.78595086039867    3.68476013226383    1.50226918358851
C         0.09203072902163    1.24363720182700    2.61568360499994
C        -0.86917881028336    2.16768630682941    2.96819118623014
C        -0.14627837202167    3.21669687463450    3.52710112270023
C         2.08202294748129    5.34556713384520    0.74059293179954
C         3.36381967472756    7.27753231432866    2.37847735538998
C         0.61541138881637    6.72598878462758    2.64897353304371
B         2.65035781252137    1.06368753137798    2.74642104216314
H         2.52524588931841   -0.00261426479387    2.25920315108358
H         4.02401511380208    5.68443016805650    8.45070867592419
H         5.00308970424554    5.17417165501412    7.10009356851974
H         4.08004620833127    6.69720965192884    5.62918664004691
H         3.71752913224619    7.56472388636747    7.10634323649337
H         1.77055898117950    7.40421992759398    5.57399776880978
H         0.61500662403523    5.20443093266991    5.31033951948268
H         1.50069469435154    3.20549116255176    6.33610567123011
H         1.46197555307527    4.75087421935115    9.02206445218576
H         0.05196403612078    4.51829707814755    7.98106157231384
H        -0.08837812776163    5.50897294589118    9.45198240617802
H        -1.07297820868628    6.72248881164379    6.39844627260904
H        -0.47740921554608    8.37296990348176    6.67058133003717
H        -1.30040573470047    7.49643046255087    7.97501479468742
H         1.87507858423321    8.86625885237151    8.36804603623740
H         0.87596566040089    8.13774168367254    9.64239170935068
H         2.52014568477386    7.53777360397198    9.35744952467855
H         3.84738462950001   -1.04738794209594    4.26027772824461
H         5.33940658248276   -0.19643590613673    6.38264826020325
H         4.95434143701542    2.48455314189299    6.41152302418384
H         4.15840638910429    0.72952699641173    0.30997374397432
H         5.80572360001910    2.82642670694231   -0.26645274621290
H         5.22626348404245    4.65157128793193    1.66956483918313
H        -0.00635630048685    0.28321575842946    2.15404398200302
H        -1.92904992502774    2.09575996625246    2.84209450096950
H        -0.53084158093414    4.13575779053058    3.92785415581862
H         1.40965504843324    4.49100772956968    0.66232759979707
H         3.05413312113541    5.06197999536103    0.34339473185805
H         1.68071887009115    6.16941219049153    0.15107110816429
H         4.38469394481885    6.92037479128055    2.26047356715921
H         3.31469374878035    7.86000560463118    3.29687431639490
H         3.09826450533956    7.90893701908894    1.53135968040099
H        -0.19910233082548    6.02607573074537    2.47533134537335
H         0.50101452233444    7.16957715156777    3.63473648710163
H         0.56697646788071    7.51350989388647    1.89790116494848

