79
CSD_code = UMAKID | q = 0 | S = 0 | Stoichiometry = C27H34BN8O6PSW | MND = 7
W         5.64888208687906    9.64202552801371    4.32081864531359
S         1.59650413148679   12.86221644675704    3.47299668811878
P         4.16203942728420   10.40114050781776    6.20586808339682
O         2.68363561339383   10.91069156640802    0.35486682664257
O         6.45196562001900   10.12859167039647    0.39457998779729
O         1.71750408117847   12.93549565514879    0.39564229387857
O         1.10847533544554   12.01010146749254    4.52383115014635
O         2.61865918300995   13.79775014135707    3.84794800297882
O         3.84560951244337    7.40325184360808    3.62703263018304
N         2.19650846480342   11.79342189926108    2.31720041185672
N         6.97128918854001   11.23988076232664    4.97154925619391
N         8.19264164469540   10.94884109347185    5.42642803441281
N         6.54961764616578    8.44155842139026    5.85533852118311
N         7.82648580467173    8.60326502026925    6.20842342707031
N         7.43575071772554    8.84187057070439    3.34372739577932
N         8.62459727522281    8.99481441058241    3.94574094431672
N         4.59946236808424    8.30180336383620    3.87109033918882
C         5.52452974471487   10.10181482840631    1.19032628162903
C         5.52621499427817   10.85305394316263    2.42547737287688
C         4.34467465317183   11.06832553610647    3.21363823448340
C         2.98962389505634   10.61773790473262    2.67251750043373
H         2.43278129683030   10.04877384449764    3.42477364738153
C         2.16796001918446   11.97683036120892    0.95864693469102
C         2.98580377097702    9.87322706249909    1.31561026666336
C         4.30599276041592    9.23054436653305    0.91616817126500
H         4.41208542081929    8.28522973969524    1.44938857322917
H         4.27652596864992    9.01663011931632   -0.15435092353466
C         1.85594615174991    8.84356114453740    1.27255501948685
H         0.90727536723263    9.31531454484912    1.52127684844874
H         2.06412865329532    8.05140671372176    1.98708199456467
H         1.78429873700287    8.41884400495865    0.27462419414989
C         0.25273578215069   13.66753197718786    2.65073157135618
C        -0.91376446555026   12.95712526213412    2.44727622297283
H        -0.98595879214986   11.94607553073998    2.81609465468921
C        -1.96075351626400   13.56701244422596    1.78301189643762
H        -2.87798474838990   13.02347735411128    1.61055139473666
C        -1.84346494886745   14.87707904835271    1.32426067018269
C        -0.65955859135785   15.57024379190237    1.55272059584402
H        -0.55904436771698   16.58563651046542    1.19987340683046
C         0.39468015081749   14.96844339034160    2.21551770577076
H         1.32564596402173   15.48066856202404    2.39461583557345
C        -2.97571697450574   15.51309142671185    0.58084817823103
H        -2.83527900857987   16.58701627731406    0.49674705754294
H        -3.92289297634521   15.31666905987094    1.07877519763823
H        -3.03526701075685   15.09608159830902   -0.42398258229786
C         8.82676927785287   12.07186731005267    5.79488907073681
H         9.82375554664120   12.04585099349011    6.18471749579439
C         7.97949320234615   13.13611518226047    5.57093215085803
H         8.16597984211733   14.17421009367346    5.75230765708213
C         6.82397909074407   12.55741358040892    5.04761344779374
H         5.92365334403328   13.04668012059115    4.72564285698619
C         8.16888986120314    7.67261704368925    7.11160183858415
H         9.15891687165244    7.62812139570212    7.51731908437573
C         7.06632886805288    6.87968799297059    7.35450307156130
H         6.99440216054446    6.04533068096440    8.02080540189054
C         6.07141973818574    7.40202901205607    6.52995428051998
H         5.05884808729737    7.06876963711713    6.38705513637830
C         9.58168310120946    8.40033217325188    3.21542949793795
H        10.60602009656643    8.41534259254056    3.52818856993486
C         8.99212681180147    7.83827940792070    2.10576687587358
H         9.46402073881855    7.29499358942809    1.31438604699122
C         7.63711934340267    8.13839501645726    2.23876582688159
H         6.83218836541755    7.86969890932285    1.58455946331528
C         4.79465942159654    9.98321143320238    7.89161973621447
H         5.81906351581569   10.34029382436752    7.99697803138499
H         4.78209656714091    8.90815783737507    8.05178323422504
H         4.17250405652776   10.46486174458999    8.64543965528298
C         2.48260523113598    9.67417216405303    6.27760411852776
H         2.11853476178228    9.66510038688121    7.30436079289593
H         2.50237023117460    8.65929036636257    5.88498624258691
H         1.81974965913651   10.28873676612647    5.66969719644048
C         3.77977320190363   12.16514327078863    6.53445954550704
H         3.35021861892778   12.64434662998588    5.65863770386787
H         4.68597180692689   12.69123845209715    6.82953622554395
H         3.05286825213151   12.21695914098177    7.34435118628762
B         8.74330153290888    9.52587475129361    5.38100239171484
H         9.85725163433550    9.48488271474130    5.77343713668305
H         6.28567963913886   11.64129555850884    2.42342001642352
H         4.23931150029613   12.07993349457751    3.61079044090215

