61
CSD_code = UMAKEZ | q = 0 | S = 0 | Stoichiometry = C20H29BN7O2PW | MND = 7
W        10.91652174879890    6.85715207935431   18.52270553446162
P        12.31230897864814    8.68468817077041   17.58001754105874
O         8.44905589144243    6.10746572666857   21.70371083353924
O        13.18782179509435    6.02995690271795   20.21342364896371
N         9.82124845943148    4.98058492888557   18.70495253289879
N         9.24291155354230    4.45422418067409   17.61678930837855
N        11.77833135696291    5.67491606940928   16.93780283732369
N        11.00654556541509    5.05389885766298   16.04464643413330
N         9.38817667257499    7.38991443819367   17.05318354907943
N         8.96969763415117    6.47295406600423   16.17930549783039
N        12.22774652997458    6.36788213389889   19.59358287901286
C         9.40857566576833    6.77335264083720   21.33715764937996
C         9.40458573599343    7.49196862276279   20.07310829971693
C        10.29353345297178    8.58293692283912   19.81711779496776
C        11.18772269937113    9.03275055932701   20.92485064810126
H        12.03650321577478    9.63547007485656   20.61213419132960
C        11.38959533397621    8.17287934015610   22.13689197473341
C        10.65169699932192    6.85418235855426   22.20795487303293
H        10.35115705461405    6.64613296555175   23.23978452110754
H        11.32812126015415    6.04936759999737   21.90590534711192
C        10.57222172455425    9.42734572790291   22.24988663718315
H        10.98469160904180   10.27421350251782   22.77885903803793
H         9.50225783944359    9.32183710162545   22.35142322779058
C        12.75769706631943    8.13335177020941   22.77942066500875
H        12.67992086361781    7.81965341696081   23.81924372985636
H        13.22928772586366    9.11330307677390   22.74977930742746
H        13.39303014680493    7.42378644601704   22.25188898693384
C         8.66845724130671    3.28117646121239   17.93062423174323
H         8.14853359660414    2.70467047082586   17.19249700415159
C         8.88743899535643    3.03848342647730   19.26755674495974
H         8.56339643037970    2.19832342796506   19.84513935072748
C         9.62542839662537    4.13735537695724   19.70704153689049
H        10.00203830958671    4.33182843714417   20.69115740060898
C        11.76621957959316    4.32481115815855   15.21368626285324
H        11.33045811873341    3.74547761174228   14.42546393744803
C        13.08521940073643    4.48344118826609   15.58441146640265
H        13.95035919658399    4.04193888692848   15.13475211352672
C        13.03761940288752    5.34006090540224   16.68314663859536
H        13.84340768865846    5.69977261870494   17.29630299508981
C         8.07014803366171    7.00759336731217   15.34108930625381
H         7.61544239818973    6.42452252704304   14.56665252954990
C         7.89773609207275    8.33153929843284   15.68449973145821
H         7.25289865218768    9.05219094386055   15.22558222512752
C         8.75113862665333    8.51965344779289   16.77001092256240
H         8.90525034397987    9.41450867574657   17.34314371540918
C        12.66707952437729    8.54580695558283   15.77555049271723
H        13.17814423553843    7.60933954693251   15.56367721659364
H        13.28766107274286    9.37702520866536   15.44236947347713
H        11.72543815752094    8.56147590011993   15.22686318370076
C        14.01102440267293    8.76544798809017   18.25886950614370
H        14.48808939435963    7.79441859949417   18.14931382000653
H        13.95277455735096    8.98866430117661   19.32210087146571
H        14.60198712980892    9.52638479747772   17.74949388894978
C        11.87872193672542   10.47516302964032   17.60301108758120
H        10.96846358254741   10.63885197727457   17.02974614866083
H        12.68771995933367   11.04972921646006   17.15242936149044
H        11.72179834965955   10.81666522745904   18.62249940105644
B         9.47634327952612    5.03166582846855   16.21837644237581
H         8.96028219047525    4.37660474323256   15.38004950194048
H         8.40279752215664    7.53209616812293   19.63062769235703
H         9.84401962177937    9.43604260070034   19.29743630972632

