62
CSD_code = UMAKAV | q = 0 | S = 0 | Stoichiometry = C19H29BN7O4PW | MND = 7
W         5.39831622845832    5.40821393383730   11.62107555323062
P         5.97216316751242    5.11530004079470    9.20864965764623
O         6.84233053414913    7.00507140372250   15.05106092109817
O         9.66591301594661    7.56053869610838   12.85802706602007
H         9.87556531604316    7.73279564750936   13.78125062380638
O         9.36686327218676    6.66666826567175   10.34952810473706
H         9.69847325626584    7.49396454875093   10.72550689486336
O         6.99379404123394    3.02183280054836   12.32066609132771
N         3.69420050574042    4.18077711983874   11.13965024182247
N         2.45468113395217    4.60799417287506   11.38901233128884
N         4.28662331352100    5.42299429793798   13.48396606191105
N         2.98629691962726    5.74350398630390   13.47895501332547
N         4.11856927915560    7.06971217984425   11.02229193839691
N         2.82880078677977    7.06278952389952   11.36419775268732
N         6.35268560759312    3.99918362224208   12.07386150853993
C         9.35103454858647    6.17725180249993   12.71725334996045
C         8.59827024453560    6.06459121113108   11.37382026149116
H         8.53013791881241    5.00290938364607   11.10778787662446
C         7.20984603874197    6.70909391675433   11.44430294703360
C         6.59639628852347    6.97493635150932   12.71056649247847
C         7.21873464769253    6.59563612880233   13.96107730158577
C         8.44354962726919    5.69923954701087   13.85030226031596
H         8.13947636690489    4.67027791008961   13.65734061544410
H         8.97795272056736    5.72271707729525   14.80444197122794
C        10.64022358107710    5.34983255571019   12.67632484901906
H        11.23561281596368    5.63974899136171   11.81380708144489
H        10.40061850961392    4.29325522270712   12.60299308003198
H        11.22410327088240    5.51873746348454   13.57898361045327
C         1.57017425747436    3.65218637842821   11.06910167555014
H         0.51796026558860    3.80104287029038   11.20119720504938
C         2.26666669066876    2.56197139085282   10.59048687759569
H         1.86947359535370    1.62897229859562   10.24811561586283
C         3.60489760844175    2.94509123132220   10.66191777692571
H         4.48463129975488    2.38196097282841   10.40985160984310
C         2.48546072088712    5.62262797036883   14.71989482217717
H         1.45662988165943    5.83912983791214   14.92523366328696
C         3.49758384834316    5.20438139233756   15.55375348214293
H         3.44621495555832    5.01465579599648   16.60532983619596
C         4.61138026691568    5.08547002428250   14.72235378165029
H         5.60482954104715    4.77425971612655   14.97843129959735
C         2.22084198980734    8.16354890680511   10.89909168732630
H         1.17947870291675    8.34067913700264   11.07425660878698
C         3.15673297517619    8.91804214967658   10.22398231731970
H         3.01309429818298    9.85689662278241    9.73049901280737
C         4.33566676290434    8.18290086862485   10.33243609894215
H         5.30786707364785    8.42707205486317    9.94766857892646
C         6.93803983280839    3.60445917726063    8.83118448841088
H         6.55373651410525    2.75868127485698    9.39575431699275
H         7.96813375139132    3.77891278290799    9.13669838711092
H         6.90794123521492    3.38367867393107    7.76447868085023
C         6.93264724790120    6.31631289621762    8.20695608245847
H         7.90236614505533    6.47917285512646    8.67480186601574
H         6.39996976644397    7.26235149765271    8.13661908966429
H         7.07632672006244    5.91476025674350    7.20403637826513
C         4.52099291161425    4.90796090985057    8.08893118967082
H         4.85115332829790    4.80555180397560    7.05574547328142
H         3.88025569300681    5.78559662950894    8.17230623074939
H         3.94671554660713    4.02840287243527    8.37156673724446
B         2.21516269192035    5.91701716761475   12.16846712147163
H         1.06203146010984    6.09776137124742   12.35608723264100
H         7.16551478766355    7.54028538458379   10.73655186038755
H         5.99769467613414    7.88723702510767   12.80691145698666

