42
CSD_code = UMANED | q = 0 | S = 0 | Stoichiometry = C21H17ClO2Ru | MND = 9
Ru        1.84217937243502    3.73946729281612    0.01810609680088
Cl        1.31051157846542    4.46016942844624    2.16736670880459
C         3.54529851393045    0.56549243059226    3.08702587745558
H         3.89120325664441    1.58545076587184    3.01124560468994
C         3.50778468010564    3.49813122455686   -1.53639695869401
H         4.17295200576010    2.66797311152940   -1.74648942022520
C         4.21492846948544   -0.35865160253316    3.86642848035757
H         5.10323981209548   -0.06519364934524    4.40605582568906
C         2.29677419717581    3.61575364486044   -2.23262513649241
H         2.02343555263381    2.88558513218222   -2.98378656601853
C         3.74745954671814   -1.65975926730760    3.95456517346218
H         4.27130127069738   -2.38363173802582    4.56142893382113
C         1.46402813477857    4.74210436204286   -2.00138240081089
H         0.55433288833991    4.85986693972667   -2.58006719519346
C         2.60857703397636   -2.03338725998556    3.25962735856195
H         2.24937005327711   -3.05044731153453    3.31928528216745
C         1.85485943767043    5.74694722721826   -1.10625730074870
H         1.25500306321466    6.64091779839018   -0.98504410147924
C         1.92814698653432   -1.11014598966661    2.48643362130266
H         1.05213352071827   -1.41210760158727    1.93215916661731
C         3.06270532279073    5.59602193094753   -0.37622336155214
H         3.37725657221855    6.38098115079571    0.30347535130692
C         2.39003543146904    0.19958170571098    2.40048438156460
C         3.90621815997120    4.49494822748021   -0.61239712639643
H         4.87187751803493    4.43031345300519   -0.12556314643584
C         1.69983394949617    1.23875901013345    1.59053801539633
C         0.30088333619187    1.22797297586636    1.55832019815631
H        -0.20145101656746    0.47915131231262    2.14712926816265
C        -0.48819389595063    2.07373016014490    0.76881745403473
C        -1.95500683588679    1.82705742668711    0.72902436540471
C        -2.66338168073577    1.44056482198057    1.86297978902047
H        -2.15040878375194    1.32341455547714    2.80500240951387
C        -4.03120377981716    1.24832836826217    1.79232780555997
H        -4.57678523915095    0.95783914033462    2.67820170343257
C        -4.70387103055458    1.43301854130188    0.59547323654177
H        -5.77151568216380    1.27776379704812    0.54514608448140
C        -4.00566246335772    1.82826168221049   -0.53369819737715
H        -4.52771401173935    1.98117834568014   -1.46706875564366
C        -2.64069198041689    2.03225071080807   -0.46572764466370
H        -2.08664769636669    2.34650319872932   -1.33784809687123
O         2.46785201825361    2.04592163032733    0.99007204123992
O        -0.07764758662221    3.00650291651020    0.01915517505524

