74
CSD_code = UMANOM | q = 0 | S = 0 | Stoichiometry = C25H46NiP2 | MND = 4
Ni        7.82032046519363    6.88212926273074    2.81935778352428
P         5.66006885135845    7.14741645989946    2.68577708568046
P         9.97708549385810    6.89154590502053    2.54530201808434
C         7.79829968533671    5.46155668930421    4.27339820155044
C         4.51412682878199    7.29692678838730    4.19235818169428
C         5.32323184595655    8.14060591814738    5.18721858866561
C         4.24322656590799    5.92339988242515    4.80439944833927
C         3.17955199500083    7.99869578634074    3.93685214625136
C         4.92401401643161    6.01523067870220    1.35792181889207
C         5.27428593507961    4.57190381116953    1.72086128843980
C         3.42055450604804    6.15343346738901    1.14238931222517
C         5.65780365943263    6.35085053612051    0.05676667984941
C         5.46420994758774    8.83021442807625    1.94840688303308
C         6.72148979237121    9.11151840499200    1.17649509462632
C         7.84594326719299    8.31672536602042    1.43828231353279
C         9.00378088182092    8.60617554439616    0.70274585278961
C         9.04072781990737    9.63755591705991   -0.22474140275488
C         7.91806785986232   10.41124893543741   -0.45286168512136
C         6.75717723101913   10.14166871158601    0.24721676241027
C        10.20387829197047    7.72948461840298    0.91351686950635
C        11.02615937799933    5.32969510754795    2.28239528266114
C        10.05764173157972    4.36657541418236    1.58840088459410
C        12.25040535137697    5.54802910389546    1.38927444767960
C        11.49978702550628    4.69891019528434    3.59136479427917
C        10.80621450805271    8.08181410668605    3.75790860983622
C        10.05501906457332    9.40602561848328    3.59337289083043
C        12.29862192295849    8.31016624759959    3.54039714610121
C        10.55150221622027    7.58098432882090    5.18012793572260
H         7.42376588604039    5.88506261379671    5.21517285138230
H         8.76748997177730    5.01901181599823    4.51919336871486
H         7.14161946117849    4.61894568675997    4.02472785092689
H         6.35786104581495    7.80043522590590    5.22563242710019
H         4.89746120742242    8.06581738395107    6.18668662122455
H         5.32642156791389    9.19140727597751    4.90480360576979
H         3.58818385146172    5.33286704788419    4.16812641009797
H         3.75116547796102    6.03832528201036    5.77036254301620
H         5.17060694896116    5.38001681543350    4.95596396971458
H         3.30968872231120    8.96266605278364    3.45311781736380
H         2.69085373027486    8.17439845254196    4.89558558205640
H         2.51030447205071    7.39563517858976    3.33258503121632
H         6.35407159372008    4.48159979199548    1.83648514579583
H         4.95436673506199    3.89692204041203    0.92727409928450
H         4.79845096188433    4.25899203118687    2.64600038381489
H         2.86027478727260    5.74321777522785    1.97866958064191
H         3.13429323910040    5.59707558391147    0.24956196444623
H         3.12935285006369    7.19091454758445    0.99394138340597
H         5.39377375535295    7.33652889700970   -0.31829309785173
H         5.40880566112997    5.61668616605860   -0.70923151694937
H         6.73653317850437    6.32367423592192    0.22028176959553
H         4.56766052601536    8.91450036493187    1.32749202490717
H         5.37930836509229    9.55504372667361    2.76388168123368
H         9.95347424022777    9.83317771804457   -0.77355422565511
H         7.94655792371742   11.21540501803006   -1.17448398712032
H         5.86950214473481   10.73666761016342    0.07236823416852
H        11.14677037293227    8.27754004140296    0.84259500101640
H        10.20426223629343    6.95721291404062    0.13750100534491
H         9.19719855390427    4.17631118633063    2.22798658941302
H        10.54682524989254    3.41869541905257    1.36760702294821
H         9.69363369313435    4.78742123482664    0.65140179460947
H        11.97429201583893    5.80229543512330    0.37009179141316
H        12.82500091217433    4.62247812150925    1.34932573017883
H        12.90066068346178    6.32649920653678    1.77636586485362
H        12.28912030236502    5.28764117903520    4.05202255086844
H        11.90086384773676    3.70510828616860    3.39076709126093
H        10.68257923582394    4.59155241221044    4.29824327643299
H        10.24983854864313    9.86526770447886    2.62706818737685
H        10.35382321562033   10.10706622741145    4.37233531707242
H         8.97899950451709    9.23406128531467    3.67979441233287
H        12.87690494978694    7.41518015855892    3.75539081692990
H        12.64095955035507    9.09488937150357    4.21533954225861
H        12.51284735440972    8.63421397759976    2.52418604455108
H         9.49049178753018    7.37203737933622    5.30694697009483
H        10.84183598565026    8.34433393806638    5.90174049619442
H        11.11264755649973    6.67841294860028    5.40103374362453

