75
CSD_code = UMANON | q = 1 | S = 0 | Stoichiometry = C31H37N3O2PRu(1+) | MND = 9
Ru        3.22325481403164   10.11675872693616    3.09266099422121
C         4.71463225366420    5.91982395432358    4.79495541121482
H         4.21782260209553    6.03252816023830    3.84231765864232
C         1.17845379133566    7.18427610893593    3.58033572361587
H         1.66231593214238    6.73893019080448    2.70299388290551
H         1.74574372579893    6.89703613671786    4.47343408247712
C         6.29914978282421    9.11185880053544    1.73327855121994
H         6.42779879346042    8.64238057876299    0.76030748843988
H         6.11657644670778    8.32171104788198    2.46540907769787
H         7.21810228247464    9.62252858836689    2.01159504021603
C         5.30911578412897    4.72155528653181    5.13971016433810
H         5.27829559314126    3.88942369502901    4.45314987663505
C         0.07072254331222    9.42069309726901    4.83956776854251
H         0.59663485842733    9.21823842435683    5.78027370777074
H        -0.20193984147035   10.48162705982967    4.81803214293797
C         5.14048918752095   10.05536010488072    1.72028609289109
C         5.94561923512353    4.59082692242623    6.36353044159607
H         6.41252882069718    3.65625684212132    6.63326278937638
C        -0.07466806713211    9.16011616311284    2.05288813814927
H        -0.35294772723822   10.20996600526278    1.90542838844621
H         0.35372846664796    8.77493650040090    1.12013246195779
C         4.00136951319326    9.78431259982171    0.93485865493270
H         3.99491059823199    8.91920384199510    0.28041834874510
C         5.99021807879111    5.66567269334296    7.23713218809906
H         6.49951909852392    5.57062972160889    8.18385396780966
C        -0.84560524364299    7.19740055626931    4.87251054628356
H        -0.22794386342259    7.00837792568513    5.75392113696515
H        -1.79526205569271    6.66721183187741    4.98147778584223
C         2.91624097603072   10.68998801109165    0.91164790750304
H         2.09313737720668   10.50972547467521    0.22538014044138
C         5.39010576372927    6.86499904868994    6.90111875239077
H         5.45812079592027    7.70285556745313    7.57722105808498
C        -1.90704061687487    8.87819629813819    3.58155904160733
H        -2.08723100580791    9.95221591324697    3.49159573629216
H        -2.86641609039242    8.36387030640743    3.67986266267833
C         2.95487658796469   11.91159020618740    1.63044152991552
C         4.73510046299135    6.99930140839689    5.67855874035018
C         4.08197565605150   12.14937632130957    2.44156961459648
H         4.16091544825480   13.08052273068889    2.99166744053256
C         4.08053586644342    8.26548229508918    5.26474045580470
C         5.14941928504081   11.23150878871944    2.50243233293583
H         6.03351609782270   11.47978702492237    3.07932036761926
C         3.53506555703180    9.09367616743290    6.25250391413659
H         3.54540177946974    8.72438676726782    7.26374434091017
C         1.84267843257467   12.92580989416947    1.50181301609686
H         1.08769365276617   12.51756028899220    0.81967740708714
C         3.06391782285954   10.39872710182453    6.05274218658148
C         1.18323542336112   13.16659229978702    2.86265161979959
H         0.90566825045788   12.21147445714818    3.31482244495331
H         0.29161385932986   13.77679469985061    2.74558330518941
H         1.86257979474736   13.67880431753247    3.53927975545993
C         2.71348399993988   11.21572636516852    7.24138354439757
C         2.37055758824969   14.23319042326828    0.90459322580718
H         3.09830884349257   14.69997472030687    1.56332153900263
H         1.54828955537802   14.92834551768533    0.75956226076336
H         2.84124710933167   14.05240714798870   -0.05904407265756
C         3.36646663577290   11.07203875026734    8.46387251964699
H         4.17688821313131   10.36784110579270    8.56944531380841
C         3.00365719405467   11.86098884947051    9.53980821761911
H         3.51725216111191   11.74741959608711   10.48216573006309
C         1.99091755216747   12.79804098006658    9.41156474680179
H         1.70989850603902   13.40808688722605   10.25603861621520
C         1.34765497160790   12.95719107458451    8.19460615014973
H         0.56399785639218   13.69162198980689    8.08811799210144
C         1.71120042221082   12.17749615201294    7.11405585656369
H         1.21942267270588   12.29591572441808    6.16010008783419
C        -0.96986600270227    6.97937136747381    2.51705136604703
H        -1.92024099657766    6.44699307496475    2.60620991826538
H        -0.44694596308464    6.62498383817685    1.62542558760069
N        -0.17006615834808    6.68150307676106    3.69314244458411
N        -1.12846011209859    8.62060314103617    4.78136560489400
N        -1.25717045472506    8.39776913338907    2.37291059348861
O         4.07374881215289    8.48338376003465    4.01324586673778
O         2.89204654028184   10.97423310262679    4.93525859803028
P         1.20606447274578    9.04208726705371    3.40414200927185

