32
CSD_code = UMAPOP | q = 0 | S = 0 | Stoichiometry = C12H13AuClN3OS | MND = 4
S        10.66785620231482   23.35576694811503    5.30907533144906
Cl        7.46529672994364   23.03433241750837    4.84732542536566
Au        9.20486218551481   21.64655663755134    5.16263908056760
C        10.75164844022447   19.13858964563713    5.42155652445567
C         7.16728014334097   17.92057423691630    4.96125676600918
C         8.28776101272346   18.87540657157629    5.11339591757489
O         7.93970047464217   20.11240062359849    5.05444786195850
C        12.07992525294705   22.31596926988871    5.56541517724966
C         9.57558794191186   18.39557573150248    5.27227376060385
H         9.69940888174922   17.32543769490450    5.26057031688997
N        12.01017426851869   21.03541560774459    5.58767783212990
N        10.79984300635417   20.45518457557188    5.42356292173154
N        13.23181914450342   22.96843671930494    5.77044990707899
H        13.21263982499513   23.96569117613544    5.62542993474370
C         6.05700174081752   18.31302917170433    4.21388168777568
H         6.05000055591624   19.29744308337237    3.77184555750252
C         7.17385712133147   16.66121979166583    5.55809836039777
H         8.00125870031388   16.35685169126959    6.18078519514483
C        12.05133503688925   18.41390735920026    5.59196395099813
H        12.74896226380668   18.73936973604231    4.82228772661516
H        11.91271757141778   17.33956945936052    5.53631482724939
H        12.48720900173546   18.68046608250496    6.55353934968492
C         5.01060898290549   16.19591970624981    4.62359481781901
H         4.17635623246947   15.52313981240850    4.49146272992847
C         4.99010863504494   17.45269235689747    4.04121115704528
H         4.13905594823618   17.76458458059355    3.45462292387022
C         6.09989971418135   15.80769671207360    5.38701630557141
H         6.11022904341047   14.83529894337224    5.85707749727842
C        14.50811368229123   22.30517729262851    5.84190171901600
H        14.34867290978043   21.30033657688366    6.22546828858852
H        15.16237405379042   22.85635815291908    6.51567921243245
H        14.98303529597887   22.23710163489633    4.85867193527558

