62
CSD_code = UMATOR | q = 0 | S = 0 | Stoichiometry = C33H21O5PSW | MND = 6
W         8.36995496920473    5.21802392962218   26.20390577269648
S         5.59303862096620    2.93380113617725   24.90335857558984
P         6.52335968612236    3.61725185474517   26.63971657285255
O         9.39798063402849    5.48878143607337   29.15464973097252
O         6.64052046226570    7.82245500347343   26.30425039394842
O        10.46885991392632    3.01553532053358   25.46888929283670
O         7.64428000032196    5.23025688284482   23.15117249892854
O        10.67565645516514    7.20955129111985   25.52375167640789
C         5.29838890997730    1.27397447744902   25.50752972982612
C         5.88799435597112    0.94107944841944   26.65561553729118
H         5.75596447689196   -0.03603652678492   27.09502453863450
C         6.72822961306249    1.91350278140964   27.42859530320629
C         6.11546634984740    2.07384690435997   28.80157083134717
C         6.33200120199644    1.19021687869442   29.84627442424662
H         7.01011716884215    0.35901751979231   29.71798082100389
C         5.68520179012816    1.39237791702706   31.05357905301013
H         5.85735989611535    0.71161469880559   31.87344757234972
C         4.82070179311127    2.46351969998266   31.21191764031465
H         4.31898846926302    2.61628040855017   32.15542446239272
C         4.59587684674108    3.34168078664324   30.16527089049552
H         3.92433880613404    4.17909452121550   30.28478386312445
C         5.24392231313556    3.14522259369757   28.95651270107239
C         5.05690418818041    4.03143154704847   27.75411768949401
H         4.13803601330826    3.74603162146074   27.22095561035336
C         8.96383152931173    5.33825611151962   28.10840142559298
C         7.18970229011621    6.82469426912538   26.37562427267241
C         9.65902641391491    3.73699050315863   25.82354638786528
C         7.87178428094260    5.18873663369561   24.26753763325617
C         9.83322614385458    6.48030853754101   25.78011109076289
C         4.47645453496126    0.40128423692099   24.67414938640244
C         4.62200470623873   -0.98541416028904   24.73424034789203
H         5.36369059666173   -1.42174330908657   25.38594227577923
C         3.83755681693172   -1.80666275733328   23.94788421405345
H         3.96402608082482   -2.87787615384991   24.00240164747410
C         2.89843946900395   -1.26250737529927   23.08702315589014
H         2.28886670210376   -1.90767170116141   22.47239037878849
C         2.75267771015498    0.11248439907511   23.01288586640297
H         2.02754212969671    0.54442238007571   22.33947117465012
C         3.53624749445044    0.93781661071600   23.79645454760913
H         3.42441579669266    2.00995426618632   23.73460782638042
C         5.01204080701975    5.49005605407894   28.08638914880557
C         5.92319381825415    6.01964321362617   28.99591616604884
H         6.64214349419251    5.36320662212009   29.46684016625248
C         5.88241111002655    7.36069343958342   29.33017172835850
H         6.59151362165517    7.75804106872153   30.04109955633124
C         4.93872613045972    8.19101019252763   28.74865986635894
H         4.90900130425143    9.23928705424781   29.00453617637887
C         4.03631691146985    7.67415714660202   27.83458574859406
H         3.30242449824336    8.31947567806558   27.37538656948763
C         4.07158502280379    6.33071859289694   27.50493352676401
H         3.36430141658402    5.93105676620398   26.79130826390260
C         8.18376270997570    1.52886702767431   27.47212955772676
C         9.01658425517030    2.12921675675009   28.41182705003443
H         8.59857916962737    2.83556906339835   29.11603223652192
C        10.35809956138013    1.80067312320425   28.47135467675311
H        10.99285618877852    2.27309654351153   29.20615462153699
C        10.88446877692603    0.87290203425048   27.58788910996391
H        11.93241469141385    0.61766328085207   27.63119833211524
C        10.06438627899034    0.28121793428568   26.64285342217783
H        10.47171166268510   -0.43481650861539   25.94482807577531
C         8.72131511019081    0.60939330896183   26.58062390150024
H         8.08842782931960    0.15268698369850   25.83271528469648

