77
CSD_code = UMAVIP | q = 0 | S = 0 | Stoichiometry = C36H33N2NiOPS3 | MND = 4
Ni       -0.47751182061274    2.12140796600315    6.03267834950932
P        -0.85733308609927    2.70564365712768    8.09747623824924
S         0.75314324437365    0.35522265797886    6.48683909877146
S         0.40384182293120    1.65944423987844    3.97879549023847
S        -3.13646137715143    5.69243192173521    5.54778737903802
O        -1.69397327348379   -6.17119820347878    3.92120329990517
C        -2.25732538833698    4.38574762402036    5.51764515794538
C         0.43928058160806    3.94582933106637    8.39030899040653
N         1.49635565037406   -0.76266161398038    4.16983610755769
C         0.95107282096493    0.27589062777545    4.79338479889032
C         0.97896534508306   -3.08505411855040    4.67224551938785
C         0.65798175113264    1.09217718983598    9.74663011887893
H         1.47457526581193    1.41745256233304    9.11608364513098
C        -0.62663259345774    1.57546921914166    9.50611602813560
C        -2.43618685465524    3.52555050555971    8.45786827719523
C        -0.27703473644817   -3.05149296925838    5.26042225136722
H        -0.54185410213576   -2.22687532324805    5.90569976177972
C         3.02875482425440   -0.07477721715213    0.78975488061130
C         1.15334700335578    4.39402609633929    7.28276945095098
H         0.91338680048398    3.98449998668554    6.29365900694549
C        -1.68265107879917    1.15057599529568   10.30387857046856
H        -2.68216211195401    1.51713134849774   10.11726671629772
C         1.30120593425257   -4.15788686394642    3.84878790290394
H         2.27632973183768   -4.20779050879982    3.38499147046225
C        -3.58488369748269    2.85190358939028    8.04728400461716
H        -3.48108433083707    1.89965501455010    7.53959885665024
C         0.88403248523139    0.20869403383737   10.78393897620340
H         1.88206036610378   -0.16056867116049   10.96859494722781
C         1.94287081323583   -1.94669215351202    4.88364924223617
H         2.01206645188793   -1.69542688895720    5.94550038239692
H         2.93781583979545   -2.21438678928314    4.51707866288116
N        -1.63349631513795    3.38651380198220    5.40931462858468
C        -1.19882710136191   -4.05881141083811    5.03956641951528
H        -2.16436764549163   -3.99766233016840    5.51591273977874
C         0.39297578430125   -5.16966899350322    3.62348408875346
H         0.63620793586498   -6.00650767805507    2.98842484925272
C        -1.44912601512123    0.26594024085879   11.34241442327633
H        -2.27090031671823   -0.05730183761051   11.96463499244780
C        -0.87175654428596   -5.12965692443372    4.21321752470480
C        -0.16958606978086   -0.20532307825330   11.58415039816377
H         0.00692404070008   -0.89723607475335   12.39433793434685
C         2.95377632571200   -0.11338549001852    2.28890172986013
H         2.98731995823698    0.90116928950548    2.69043880064565
H         3.79501102187483   -0.67735633548957    2.69718863443791
C         1.63486679701537   -0.76637465191122    2.73043063598529
H         0.79862297767512   -0.21230133165546    2.29450073737949
H         1.58585775711280   -1.80106180056738    2.38424712141429
C         2.14871241201161    5.34163501573912    7.43394867103222
H         2.70015763749831    5.69027781494665    6.57369888519317
C         0.74247979147564    4.43568946064260    9.65714003054119
H         0.20594487174783    4.06583164190694   10.52038011887064
C        -2.54250196447055    4.77301028088700    9.05636398749021
H        -1.65489526124118    5.31772252326829    9.34307185328130
C         2.43512084270158    5.84133967499273    8.69430121558562
H         3.20951240517294    6.58412801283177    8.81587434154739
C        -4.83026772632476    3.41007649097012    8.25629672256196
H        -5.71841298198567    2.88955398964829    7.92962208978731
C        -4.93434161904373    4.65070506155983    8.86589113262735
H        -5.90594972390959    5.09714799254857    9.01605716434631
C        -2.98747240119084   -6.18755773015581    4.47620010454199
H        -3.45951022130181   -7.09157923332036    4.09503988788368
H        -3.57084775899787   -5.31613187685307    4.16252512075047
H        -2.95492246533715   -6.23039992572942    5.56965379677693
C         1.73696374825683    5.38584487059308    9.80232962376144
H         1.97042681802891    5.77256561291388   10.78360624887487
C         2.37506505796651    0.93001017259298    0.08712458682801
H         1.83866479638912    1.69489579385948    0.62988927448037
C         3.10240697063080   -0.01995747545861   -1.99160915969857
H         3.13418074933394    0.00299207690331   -3.07080483778211
C         3.71336767790539   -1.05418765384176    0.08379068056763
H         4.22629868992859   -1.84088082270987    0.61964426615600
C        -3.79398601732706    5.32893970375345    9.25998104082955
H        -3.87630214635735    6.30507934461876    9.71457671522416
C         3.75312990557771   -1.02636206864154   -1.29944086411968
H         4.29439810747610   -1.79101276615799   -1.83733382222997
C         2.41246586355837    0.95824744851868   -1.29502645918483
H         1.90311908381570    1.74585893265873   -1.83033165554271

