76
CSD_code = UMAZAK | q = 0 | S = 0 | Stoichiometry = C36H33CoN6 | MND = 6
Co        0.86451209197397    0.73698047350732   12.38823853782847
N         0.77860915468192    1.59768168233882   10.61538091591029
N         1.00624779766015   -0.17529779450711   14.00848150243986
N         2.82542757641424    0.87953422144901   12.55660423636971
C         2.30052310048146   -0.30263438896988   14.44975384944121
N        -0.99498704907128    0.58939613488631   12.35923700519356
C         2.15342152756421    2.96477805568274   15.06459786700693
H         1.96717462143848    2.02146022937320   15.55505923375149
C         5.41558886825690    2.77250507386290    9.86340567780457
H         6.07149000281955    3.26593665456146    9.16165284617468
C         1.64708280326329    4.52795471743881   13.30917861698085
H         1.08044481818550    4.79196323498395   12.43042466298499
C         1.42823906302737    3.29486562224182   13.92060368566639
N         1.09664866242070   -0.81831196672063   11.38417922641716
C         1.65618269471343    3.75466824154244    9.91796768657490
H         2.63024926671892    3.30990252568890    9.79053511484059
C         0.87577082619097    0.74043794129509    9.63647743578264
C         1.05275800880137   -0.60199269341361   10.02850599184088
C        -0.78505780791123    2.58791348020560   13.58172876666094
C         0.59068614512607    2.96185126179569   10.34053296654012
C         5.13898673996691    3.35617614602896   11.08888188250266
H         5.58193990873461    4.30637099648310   11.34905524471565
N         0.49118685085977    2.39070838769364   13.39522783826147
C        -0.66897517429438    3.53984904581513   10.49079808844692
H        -1.50153447804979    2.92297542036017   10.79306633966048
C         3.28042858743207    0.29267877990288   13.62952832860333
C         3.09697281205669    3.84213869188172   15.56649149268463
H         3.65442369048531    3.57544323373527   16.45290654421413
C        -1.63193961250639    1.60966624462856   13.02230646890438
C         4.85001232641132    1.54797195906726    9.54560250981487
H         5.07148896560221    1.07991916496074    8.59722294133411
C         3.70879115182078    1.50724532754791   11.66445611946789
C         4.29677418733131    2.72896204730964   11.98805327825293
H         4.08050931141346    3.18537395100470   12.94086612149840
C         1.46803884559973    5.10326861269185    9.67822656503730
H         2.30373608058818    5.70791921671590    9.35761576176906
C         0.80331115543327    1.13755488162314    8.19551745431782
H         0.03952596579179    1.89905870933493    8.04617309529610
H         0.58144617437006    0.27283176424232    7.57763969446761
H         1.75976635563568    1.55503844606790    7.88103297696160
C        -3.01727784386999    1.40745410513814   12.95111716464411
H        -3.77993324410505    2.03586564670489   13.37017218852243
C         4.73370269764549    0.23787687270798   13.98239685065255
H         5.34739977000772    0.16804715491497   13.08622728152521
H         4.93004819888720   -0.61397506197321   14.62679928668370
H         5.01473079817749    1.14607641043841   14.51564519579438
C         0.97890866388057   -1.30278812570554   15.93850931520849
H         0.59927056562006   -1.83651353234230   16.78865464914810
C         0.21573864654237   -0.77390016091857   14.89484570942464
H        -0.85089198698240   -0.81546845624430   14.77135343030817
C         1.21932019110869   -1.82513496794377    9.36410514767747
H         1.23489142728012   -1.98211997091638    8.30237233465435
C         3.32439812929779    5.05914362795592   14.94411040768053
H         4.06435593741152    5.74007273192055   15.33775815794614
C         4.00522112177055    0.91408809071386   10.43807086079512
H         3.57316603927781   -0.04496949385046   10.19634022457971
C        -1.92884978394302   -0.23103254442638   11.88628050821382
H        -1.68156246514562   -1.11631173877737   11.32966864202397
C         2.30410315291868   -1.00829104627988   15.66101924208082
H         3.16291565415624   -1.26256743861069   16.25255315992243
C         2.59278428841028    5.39880772357385   13.81791473138163
H         2.75780879665329    6.34856454450737   13.33061618846055
C         1.36456905023300   -2.78389050091865   10.35380483129920
H         1.51236516649556   -3.83790221780579   10.21617096340441
C         1.28022084004336   -2.12084700333701   11.58036532009140
H         1.34419343600503   -2.54581578878025   12.56525642641370
C        -3.19889175173086    0.23943955621619   12.22815950880302
H        -4.13227299443061   -0.22570533996057   11.97484495411557
C        -1.32874375108965    3.76069667887747   14.33556420160401
H        -0.69505986651011    3.99702886877779   15.18870163219228
H        -2.33809322773864    3.55249545034926   14.67734366204053
H        -1.35561707383746    4.63392582533513   13.68368374070836
C         0.21877419505587    5.67753776404854    9.84707316133631
H         0.07537856361693    6.73175736562007    9.66213339473165
C        -0.84764528110977    4.88958350472256   10.24939641938967
H        -1.82792807743999    5.32742773192966   10.37135653412002

