61
CSD_code = UMEBET | q = 0 | S = 0 | Stoichiometry = C25H32ClN2Rh | MND = 6
Rh        3.42777248708766    2.79266038082678   12.96249969494983
Cl        3.09326853253204    2.42549647744611   10.71310695273811
N         1.43265482872291    4.91462740576142   12.53405400128004
N         3.62314922383152    5.59910499712196   12.13761430524714
C         2.75347503805313    4.64437712057716   12.52639738176396
C         0.52415107304467    3.77993472641249   12.76642706994282
H         1.20025031494191    2.92521399718138   12.96735502901921
C        -0.22711250907510    3.41508949380936   11.48708308657529
H        -0.86723789999798    2.55866533063345   11.68295494064797
H         0.49624334906721    3.13491385618288   10.72395706345960
H        -0.83509581295682    4.22921992127981   11.10462728768029
C        -0.37699200733269    3.96584022191624   13.99636686519075
H        -0.05868818233096    4.82185875801213   14.58678965837398
H        -0.32482603600210    3.08403313551035   14.63026031952038
H        -1.42010559399300    4.10280375788072   13.72250867316344
C         0.91413862256835    6.17474107669646   12.22187288571671
C        -0.42916966094600    6.48650577516098   12.27250067415569
H        -1.16744611959982    5.76078584058913   12.55161287806225
C        -0.87826856811980    7.77296252653158   11.96026199485044
H        -1.93831505085308    7.97456402718609   12.00952345229025
C        -0.00475994482196    8.75835651532329   11.60137109152608
H        -0.35215758269919    9.75128095075193   11.35967079880441
C         1.37607903318958    8.48821909969199   11.54398916390600
C         1.83968393575571    7.18549017468847   11.85975366292607
C         3.22639085816994    6.89718350365456   11.80479439121857
C         4.10483602180049    7.90256985033038   11.45589916535560
H         5.16345154414006    7.73763937965909   11.41243338545824
C         3.64001265860633    9.18395637330517   11.14602177873036
H         4.36033711055453    9.94159707678723   10.87431929435008
C         2.30825891634923    9.48043011847124   11.18402161219369
H         1.94972981389506   10.46969984332540   10.94359824531336
C         5.02383511109086    5.18512688913149   11.95344566726119
H         5.03759945780102    4.12370639528815   12.27324686446869
C         6.00848927933538    5.95315483309734   12.84763388620609
H         5.47844911462370    6.53618976367914   13.59733928548699
H         6.64597297872121    6.62278527936452   12.27558303823288
H         6.65899047756558    5.25247992666714   13.36546802930216
C         5.39552500988736    5.17127478367232   10.47171253105159
H         4.74867667331875    4.46483968055852    9.95515309708980
H         6.42387973400919    4.83510814019580   10.36598974003881
H         5.29262894945349    6.14310608306901    9.99875668722898
C         4.34171654246873    3.25476477155279   14.84133946303842
H         4.58983805216502    4.31388977612177   14.88496705155232
C         3.00349749001175    2.91718939424526   15.04164818362287
H         2.31409038219755    3.73371489868370   15.25554872642130
C         2.52541239906940    1.58577316982821   15.57609764779362
H         1.44110227729591    1.53706580461041   15.44534077245660
H         2.71919217689301    1.54059862832874   16.65406239694717
C         3.16639036257674    0.37352721603952   14.87443002672145
H         4.05780788803103    0.04977011554117   15.41377704879054
H         2.45903481243589   -0.45813763035044   14.89376053542778
C         3.54126550561879    0.66889755751345   13.43905151873387
H         2.93263698831467    0.16616481149959   12.68756214565220
C         4.78726193512347    1.11844360632453   13.05797440621699
H         5.11013071264392    0.92217102207451   12.03548852592220
C         5.91898287242467    1.43990883654649   14.00719897536054
H         6.70203095124795    1.95062722968280   13.44043464609521
H         6.35087582008764    0.50489645167592   14.38063072200581
C         5.49165018667739    2.33162986656237   15.18934770773454
H         6.34824623881597    2.93270915972586   15.50258373455914
H         5.20438122652067    1.71670182637403   16.04368013417312

