96
CSD_code = UMEHUQ | q = 0 | S = 0 | Stoichiometry = C29H60N4O2Zr | MND = 6
Zr        3.45338412979917    4.22717825742785    1.35873969055081
O         5.55263727039018    4.27972599884308    1.48012548481550
O         1.38347456625972    3.89415168637710    1.40031471050126
N         7.12081270197695    5.06990381888194   -0.01331746378137
N         4.78154081388768    4.82171870711736   -0.48326351611141
N         2.14262445663992    4.51082684342271   -0.53672653107980
N        -0.15546341266195    3.83367721791164   -0.30569052481460
C         5.81466725979287    4.72869171274281    0.30559549919099
C         2.17675796068819    5.17155192910498   -1.81426796427668
H         1.22551988470479    5.68110893599828   -2.03430873896883
H         2.38343604701025    4.46134314602544   -2.63290312974424
C         1.11978217290486    4.09106182722521    0.15152002956745
C         3.30357376083661    6.23482909661888   -1.82864239063255
C         4.69064030696091    5.55702063180701   -1.71605006463750
H         4.80872042690978    4.88819952314911   -2.58519790718592
H         5.45937924876100    6.34254356822725   -1.78312612107319
C         3.66367833107276    1.16133992563151    1.51575792224842
C         3.11925032382418    7.20211480075224   -0.65653105493041
H         2.13046661370663    7.65817458105178   -0.69314969388198
H         3.86814683971589    7.99220614975239   -0.70226570816083
H         3.23134724373311    6.65059082306328    0.28814485607365
C         3.65003470633866    5.83544657744289    2.93185807328289
C         3.63623951463543    2.32012301820620    2.52614400750066
C         3.23558562948719    6.99735432084862   -3.15409791803348
H         2.28155775854406    7.51156264163836   -3.25066600761765
H         3.34466141715182    6.31800457036384   -3.99743997959040
H         4.03007502072289    7.73865707986062   -3.20879679878554
C         2.23335288391758    0.73904321464361    1.15555260253096
H         1.72186273777703    0.33900033594940    2.02974461830274
H         2.23729602077947   -0.03208406923968    0.38353112495435
H         1.67249123559767    1.60116929330280    0.79438121244485
C         8.04942259657883    5.40938583281155    1.06337464741715
H         8.97163701310991    5.73731409696351    0.57250464141338
C        -0.38870167448690    3.42860076196716   -1.68427346862267
H         0.57544982447144    3.48689215478572   -2.18896354844351
C        -1.14923423384203    2.47140294384821    1.55755057745652
H        -1.07333981485537    1.55243752142218    0.98312728307861
H        -2.03356560992613    2.41380193652285    2.18827868625300
H        -0.26926885396958    2.56716873785397    2.18637278853630
C         4.37340653090168    1.61512682602270    0.22313836927790
H         3.81098793015132    2.43876269668713   -0.25090973504358
H         4.45331839835646    0.78468985411796   -0.48382637841858
H         5.38258688509700    1.96356827216336    0.45988030381514
C         8.38835576444589    4.24968771739591    2.00564611542975
H         7.48353807644205    3.90515426276354    2.49733098294484
H         9.09687239077401    4.59235120748593    2.75668482406393
H         8.83282299886805    3.41894544451743    1.46516245775657
C         2.41151411587700    6.36048256854301    3.66442864889998
C         7.48689650487634    6.58856932364482    1.85850488006836
H         7.24125328962938    7.41121389052383    1.18967029946901
H         8.21865453973824    6.93352298662531    2.58513890443325
H         6.58646283638848    6.27711473702378    2.38222017940227
C         1.47284682919490    7.03418022939624    2.65367978696374
H         1.94161365117047    7.92791161267244    2.24097548000463
H         0.53852275327939    7.33279798762324    3.12886557909576
H         1.25251989693680    6.34221926341918    1.83784937760816
C         1.69770179120942    5.18687309819768    4.34766652745627
H         1.43104862250524    4.43411614518372    3.60422811598664
H         0.79803262544530    5.52449182383424    4.86238414136476
H         2.35959409527259    4.72563714075910    5.08017381288071
C         7.66314561663857    4.75631149860684   -1.32604436699008
H         6.81563075123759    4.43975899171223   -1.93648772802908
C         4.41058433612412   -0.05950497601017    2.08319100362620
H         5.44771187923516    0.19605777543474    2.29224385291087
H         4.39675010883734   -0.89409171795721    1.38199331179080
H         3.94667489164014   -0.38725508245916    3.01132371523470
C         8.31436824400265    5.97455466572326   -1.99037960241283
H         7.65301151253505    6.83598410592022   -1.94147036265566
H         8.52207388393157    5.75464972998616   -3.03461712009378
H         9.25188813542931    6.23479949470742   -1.50562882829969
C         2.80004221465732    7.39452925394027    4.73690859165422
H         3.46081303792064    6.94438064213959    5.47499195688867
H         1.91853782454169    7.77296687565390    5.25296181501330
H         3.31913507836680    8.23841773363413    4.28535386576231
C        -1.26480115006896    3.69077030383096    0.63874658456331
H        -2.16174546533722    3.57325959421098    0.02306247508747
C         8.64883378069732    3.58195922193253   -1.29215646661369
H         9.56191225835855    3.84737485788116   -0.76582838195726
H         8.91130954970076    3.30076487903135   -2.30966988313072
H         8.19369416383323    2.72425127562349   -0.80285231894506
C        -0.85371315125846    1.97197728553450   -1.79647392750768
H        -0.15599975845840    1.31460847629766   -1.28331656258737
H        -0.88835982006953    1.68733983145662   -2.84561184686985
H        -1.84521273644492    1.83311658880301   -1.37411799808175
C        -1.42998499864236    4.96344798119841    1.46835946745715
H        -0.60709582739003    5.05480259189585    2.16946114661952
H        -2.36379347165320    4.92136485141947    2.02411842896078
H        -1.44694684779913    5.83854197313404    0.82216904732158
C        -1.36957035309784    4.36469669175705   -2.39823652670329
H        -2.37906890064846    4.24993556001071   -2.01168872218796
H        -1.38470950459908    4.13946473411120   -3.46159630023183
H        -1.06910535819380    5.40137071517647   -2.26649349410630
H         2.85277677517522    2.12372414066499    3.27575457374557
H         4.60210567337776    2.34407254818559    3.05991045149096
H         4.17679231737842    6.70730941216022    2.49406365349323
H         4.33273167647679    5.40943027872612    3.69202388655620

