118
CSD_code = UMEJEC | q = 0 | S = 0 | Stoichiometry = C44H69N4Nb | MND = 4
Nb        7.38701666659151   17.86438411497483    4.14231878660516
N         6.88564293916830   15.98351935763891    3.61958113102924
C         5.55739315868905   15.64327792554222    3.56609751695821
N         6.56402313471948   18.83656213558749    5.73081488537957
N         8.92273909187761   16.97723517849674    4.39998532472187
C         9.21554486522925   15.60708044494742    4.25079789564695
N         7.87162638611940   19.03826315827724    2.58224614209997
C        10.86456958993044   15.72328172096550    6.10632458870758
H        10.64990941693213   16.78917826806674    6.14477769210423
H        11.70222687457656   15.56564566005706    5.43031303556636
H        11.15282095389420   15.38254380779223    7.09801190242396
C         7.19902982978345   19.78983877256705    6.49276984545069
C         8.69220340031108   21.70267642104211    7.90520920237125
C         5.83612037858712   20.29212164879711    2.79877294140157
C         4.48553652579707   17.99624045082893    6.91403204153351
C         6.73361385313069   19.56988134317842    1.99663869418654
C         6.61610580616916   20.98734668534483    6.94060850633460
C         9.62497872348098   14.96637169644410    5.61555977771882
C         9.30185738602200   20.52805913174614    7.48175388470314
C         5.12089204345671   18.76772046022206    5.72533130693012
C         6.90640011370424   13.89650557251880    1.51780074359177
H         7.11062521397977   13.48834370045662    0.52957660492758
H         6.12518395067997   14.64515018884584    1.41768328375400
H         6.53126477647157   13.09134421229753    2.14561975663807
C         3.61539025868111   14.29890046471206    4.13770121280820
C         6.70589564237985   23.20811905949720    8.09542407468155
H         5.65423628785280   23.24138319405320    7.81976962668194
H         7.20779054933904   24.06789009074259    7.65233254484271
H         6.78223125582252   23.30090722474112    9.17826776392727
C         7.93272526482462   14.96489068631442    3.57343631686165
C         7.34986114705370   21.93232625164977    7.63506980986462
C         6.38415651917316   19.35801039893448    0.65387870495134
C         4.98498523512376   14.49520978401751    4.13873246172877
H         5.61806295888573   13.75968738614608    4.61428455392361
C         8.18995045131128   14.50150873818049    2.10321562150323
C         9.98164694621737   13.48600177829677    5.47485846003284
H        10.32076277333137   13.10170257056411    6.43479173712149
H        10.78131289076757   13.34598527276770    4.75218977331731
H         9.12669798170248   12.89447224173803    5.16068206942234
C         4.29605697114096   20.49080639554232    0.98180819212338
C         5.17756948224436   19.80869795707511    0.14881476739394
C         9.12670888945807   19.17729502642777    1.87276773252608
C         9.26624004598264   13.41213777732976    2.05694525290633
H         9.39407690233284   13.06920166539946    1.03228798974538
H         8.97662650300709   12.55922302100382    2.66560818272071
H        10.22594390376676   13.77646615288875    2.40916795426661
C         4.68222288484309   16.56574172024101    2.95769500575879
C         2.78198737075053   15.24558405179252    3.55288901874926
H         1.71269345502394   15.09085646961830    3.55428197927979
C        10.74634789574126   20.26727095692610    7.79280175366492
H        11.17087777893384   19.56060243217012    7.08411263802514
H        10.84340897150936   19.84716872999432    8.79441382403404
H        11.32018054590588   21.19084111326438    7.76064170943774
C        10.18406500471632   20.36682099440823    3.81521078554681
H         9.24450167018127   20.43998969234616    4.36658700468883
H        10.82758126082419   21.18588926053010    4.12891796468915
H        10.65808845976905   19.42102018242047    4.07866898025925
C         3.31158715473438   16.38219484104048    2.95269736315180
C         4.62243657275309   20.74504838346420    2.30708824775384
C         8.60979775373675   15.68046070726368    1.22453953957152
H         8.67946582932662   15.36440684261362    0.18540259011015
H         9.57668746207304   16.07144251612229    1.53058838441632
H         7.87402929627905   16.48209922491976    1.29879830875615
C         8.50187409503370   15.13962939312819    6.63630734544932
H         8.23532318725666   16.19520065040591    6.69738564097618
H         8.82632630720075   14.79800010065377    7.61704493306500
H         7.61809730552316   14.57380193252155    6.35189159676506
C         9.15908324199118   21.70432374099474    1.96155086036484
H         8.21127348435770   21.73781820817393    2.49335525195191
H         8.95365223754661   21.75229455485394    0.89348601863114
H         9.73721040840202   22.58289815108323    2.24008696462810
C         9.92951983832453   20.42942700783979    2.30911293436680
C         8.55805077510274   19.58781098883524    6.79466802080269
H         9.02174790292466   18.65936736790319    6.47138008426407
C         3.01887675106955   13.07652689621685    4.77050665680672
H         3.78318514019606   12.47130559435511    5.25155642739367
H         2.51891026724310   12.46867019498608    4.01693518386052
H         2.27658376675256   13.35840443297321    5.51602122558471
C         4.54808212651600   18.81685324616955    8.20432750027114
H         5.57656272676113   19.06312083171520    8.45778442027287
H         4.11876964199178   18.24755187632219    9.02686954536930
H         3.98515991753240   19.74290557147209    8.10409421177260
C         4.80425681188306   19.56033297983172   -1.28262139592491
H         5.54223674265978   18.93344808273442   -1.77700193014802
H         4.73546566203091   20.50499177852996   -1.82174463747006
H         3.83280227307646   19.07129142747463   -1.34434272361400
C         3.67064161178977   21.48593682445372    3.19960466162398
H         3.08419760144146   22.20357274434853    2.62991146425509
H         4.20723765311401   22.01548398419818    3.98464956381277
H         2.97811996886768   20.78613834044621    3.67157989728373
C         2.40604887089743   17.38818859720027    2.30451013671245
H         2.97484097436529   18.21926721649493    1.89169590082164
H         1.69202024660349   17.77864914584522    3.02982024079541
H         1.83798693915232   16.92198863355665    1.50010795415939
C         3.02124862900833   17.71548162236908    6.56255245440521
H         2.51971323639823   17.23100183916229    7.39773286925531
H         2.95095317209843   17.05987823564243    5.69581570209528
H         2.49283820067199   18.64174919697998    6.34061333703128
C        11.26525374797239   20.41970369773449    1.56129711673081
H        11.85758139763015   21.28999103422057    1.83424214454531
H        11.10591726952167   20.43974572886876    0.48510532610555
H        11.83365430501465   19.52629428131513    1.80862530918883
C         5.22309591658539   16.67459911744066    7.12473166767997
H         6.24129667594224   16.86464714073201    7.46051637910325
H         5.25494611938054   16.09571040028377    6.20024780244032
H         4.71799695368736   16.07847064925897    7.88249605549733
H        10.07781327471352   15.47843291004080    3.58120972779401
H         8.96915041071815   19.23428046636541    0.78825209270324
H         5.57686196604291   21.20290117640134    6.73724190482451
H         9.74037603355228   18.29654106068670    2.09295275399469
H         4.66009577070011   19.76660851249178    5.68376128695209
H         6.13411665056439   20.54657849905659    3.81272233447047
H         7.62860554329530   14.07136634994253    4.13266037537774
H         5.10591848565213   17.41955318643459    2.42716495571259
H         3.35173423764786   20.83775142057771    0.58648638641641
H         7.05194924131755   18.80258456327397    0.00856566166934
H         9.26193838353631   22.44181076476684    8.44965023525959
H         4.80348659393823   18.23798433688255    4.81022677413876

