74
CSD_code = UMEKEC | q = 1 | S = 0 | Stoichiometry = C29H36CoN6O2(1+) | MND = 6
Co        9.78960318487195   12.09407599690508   10.45676606403838
C        11.63997499269528   11.54874822073640    8.40262568884071
C        12.91808720235972   11.81482862300758    7.84678118734692
H        13.51611243276422   12.56802877313176    8.33696519214112
C        13.38062309253542   11.14749691860605    6.74990337632753
H        14.35857482371874   11.37579486431334    6.35212278976632
C        12.60374944322380   10.15387574388371    6.13364678715435
C        11.35837785787006    9.88878173085152    6.64450878217159
H        10.78740058895054    9.10214684150612    6.17777118489179
C        10.82627619394772   10.56532579455886    7.76470495332783
C         9.52547722585218   10.24040366919232    8.28118783623365
C         7.84151542534778   10.20591659106155    9.95486018151618
H         7.74511008267409    9.12198291571869    9.83523397177289
H         7.00788131424402   10.69939892471540    9.43725827438457
C         7.76711269648235   10.56174024145364   11.43879840314889
H         6.74993912200710   10.39934523780056   11.80297886285370
H         8.45484923232256    9.92399612221575   12.00006573147223
C         7.50421052859010   12.78300720145215   12.21251587430833
C         7.77805825371581   14.22098357236998   12.08779827143643
C         7.83828544799424   15.08103984767137   13.18189558075605
H         7.73111662700790   14.68067923998140   14.18076479006104
C         8.06791395803234   16.43813398874989   13.02147144891771
C         8.21455405767901   16.94239686661323   11.73205227494351
H         8.38545215819678   17.99906030951530   11.59208542675765
C         8.13289888708896   16.11175287518472   10.63174978185033
H         8.22667968259618   16.50803338722742    9.63259570084327
C         7.91600915154977   14.75163324982026   10.79943636000302
C         8.95975652607648   13.38164040295850    9.21916041282132
H         9.68356843663116   14.18151959535705    9.02441436864276
H         8.68859186093290   12.91318080955651    8.26984534706648
C        13.14408478376376    9.41460590435010    4.94837904898721
H        12.44614105752383    8.65463099605838    4.60737777733484
H        14.08860208258909    8.93320055350288    5.19760670086346
H        13.33190140198949   10.10525704131802    4.12728652327822
C         8.63684346993996    9.34473753185882    7.45936474274533
H         8.77558607774281    8.30093870952495    7.74150359918432
H         8.86014157790953    9.44848017827510    6.40325339580662
H         7.59035113970399    9.60211463991869    7.59926450209751
C         6.33198595777304   12.41413855932992   13.07717220427929
H         5.48269450853545   12.13892410074225   12.45100856960412
H         6.02698446271774   13.26370066559369   13.68037717072005
H         6.56194078727457   11.57373056258703   13.73042303464716
C         8.12618545545215   17.35559844142573   14.20364456876054
H         8.90730249331216   18.10213571505399   14.07763625957980
H         8.29994410147284   16.80565318065847   15.12529572082101
H         7.18021299469857   17.88733798624460   14.30303739214329
C        11.40793904046123   14.50443301500051   11.07357309281252
H        11.64572409903602   14.57901699405232   10.03331325073564
C        11.85207073346642   15.27277826412609   12.10644560623471
H        12.49932636279872   16.12448423490490   12.12381497342201
C        10.55892457205880   13.70166496255183   12.86204033922338
H        10.00643856399573   13.10629045507826   13.56003572203227
C        11.47850128597242   15.26010299470223   14.57048663823141
H        10.94269998551074   14.62913462665166   15.27647823321422
H        11.09096990018504   16.27760826922293   14.63841412643346
H        12.53672485058537   15.27228483797574   14.83567200043925
C        11.79728283681163    9.73623200995831   11.14500872240694
H        11.97407773318318    9.71348390049712   10.08991541057865
C        12.39481173199994    8.99475585307273   12.12100629304774
H        13.15332539129962    8.24203709919656   12.07113236653414
C        10.92890214359609   10.33362808357944   12.99816393348452
H        10.32147991235876   10.80736615797696   13.74432694465655
C        12.15690035776155    8.86917697944136   14.60059444479477
H        13.19087727175235    9.10810594200200   14.85591687196965
H        12.03777453319926    7.78488388069838   14.61819863858559
H        11.49664244566678    9.31070364064963   15.34473672896398
N         9.10565822451880   10.68495532442019    9.43256489887943
N         8.19873788722054   11.93890184971713   11.53992704230195
N        10.59222518145797   13.52645535819815   11.55632626655331
N        11.30302994610707   14.75185170840431   13.23924175896386
N        10.88232871577181   10.57300842620790   11.70594819029816
N        11.83097459194126    9.38334076746169   13.29967542202865
O        11.30610552008224   12.22191822485886    9.44743327112092
O         7.76768334086262   13.92026281683039    9.71751269539269

