42
CSD_code = UMELED | q = 1 | S = 0 | Stoichiometry = C18H18ClCrN4(1+) | MND = 5
Cr        7.53219874094213    8.22446117110546    6.25192436282636
Cl        7.12163734023764    9.64747183970650    7.75044377049879
N         9.04090174586826    7.32738114699335    7.12374294021175
N         5.96275232228473    8.27953715119687    5.09953922023827
N         8.46394656104129    8.81497621729257    4.62522611917898
N         7.74922997983709    6.34586128328658    5.13368001710118
C         8.19449021927920    5.35148623212953    6.11078472609738
H         7.35044584849850    5.08928517458096    6.75821875879623
H         8.56511104088765    4.43437321764972    5.63537232244919
C         9.24559483743287    6.00366266612829    6.96474636873173
C        10.29187255016519    5.31900919462491    7.54766229061038
H        10.39823909076335    4.25854484469270    7.38267305394271
C        11.19065470967511    6.01147051611707    8.35052457369006
H        12.01251667020058    5.50354473978362    8.82645966025643
C        10.99321770812761    7.37527406285597    8.51364523982355
H        11.66210537124342    7.96241762971385    9.12125903560691
C         9.92561891006753    7.99101776017039    7.89062055296598
H         9.76248166793851    9.05384595934126    8.00178342847535
C         6.44577532851866    6.01038573238697    4.55725101035144
H         5.86016478210462    5.46561439975379    5.30581051083812
H         6.53466254352097    5.36932492686435    3.67142319706174
C         5.69799902378694    7.27335927669169    4.24359704936349
C         4.78275720224300    7.37570177384425    3.21385187257249
H         4.61759871118706    6.53627996378644    2.55730074152953
C         4.07777365119396    8.56008531896646    3.04807832846227
H         3.35557990932712    8.66813039589355    2.25629329880968
C         4.32352190856476    9.59127342099661    3.94450805420983
H         3.79138451770532   10.52566194629760    3.87347660379918
C         5.26064620913605    9.41704860166087    4.94250749819231
H         5.46106126931822   10.20683426434508    5.65333785266578
C         8.77110631029001    6.51621467199982    4.08938577869539
H         8.59294339986262    5.85465204466534    3.23319489879342
H         9.74751722717294    6.26042700604745    4.51531692849733
C         8.82701688276694    7.95254284703522    3.66489320872978
C         9.25036237591359    8.36269731106377    2.41359933863028
H         9.52548111543556    7.62970678827331    1.67181635292169
C         9.31908583093830    9.71981037615571    2.13411261100705
H         9.64466323394549   10.06754902343108    1.16770666535606
C         8.96574358848941   10.61357927571923    3.13660079990554
H         9.01540909589488   11.67761499497539    2.97478970668096
C         8.54796397623549   10.12147197143531    4.35654232294930
H         8.27276659195392   10.78361286033485    5.16489892847349

