97
CSD_code = UMENEF | q = 0 | S = 0 | Stoichiometry = C40H38BF15N2Zr | MND = 10
Zr        6.54497252657494    0.69364851701234    3.41845994210752
N         6.40753708624170    2.66697259184498    4.21532338837752
N         6.79710594108673    0.93009169431395    5.53237418006338
C         8.70727325148346    1.37565133592201    2.48324207603130
C         8.97318077936880    0.30619006145721    3.39053089597814
C         8.36963263704101   -0.87548485476392    2.86986543259008
C         7.74536696798901   -0.53448625136123    1.63526402600988
C         7.95002361566356    0.85477836438521    1.39265404101922
C         9.36147443201188    2.72701533894483    2.60048344885298
H         9.19023476638925    3.16598554255803    3.58553144995220
H         9.00376077120003    3.42194115373736    1.84400597403894
H        10.44188907452629    2.62566520707083    2.46810633419237
C         9.92980473768575    0.43137394395226    4.54604201740962
H        10.84476158519550    0.92357996308861    4.21137831695808
H        10.20950112052090   -0.54601638971502    4.93339985258468
H         9.51260458360310    1.02728771992747    5.36198794935316
C         8.55073748090404   -2.29385801159344    3.34359106794532
H         7.59616928319809   -2.78608524878763    3.54161294175724
H         9.15285369149182   -2.33886093552783    4.24743844359130
H         9.06480018063573   -2.87219823856250    2.57323644244720
C         7.22447845680091   -1.53212347726640    0.63668292876087
H         8.06295141593446   -1.99011446780654    0.10544700267732
H         6.58498942652899   -1.05971641787333   -0.10638555306210
H         6.66804224812574   -2.33713772874351    1.11621553003831
C         7.62746029352145    1.54324801709200    0.09000650422537
H         8.09505012001339    2.52450947463956    0.03841713068013
H         6.55206232932210    1.66277955080120   -0.06418351919944
H         8.01903344445557    0.95373690792678   -0.74030875426615
C         6.69175345334014    2.25656375984128    5.44748667835975
C         6.91610178261965    3.18437307411420    6.61069346094873
H         7.27959251870050    4.14895410176788    6.26541755036453
H         7.64149585063693    2.76451180914439    7.30436496086662
H         5.98275848464450    3.33495269695334    7.14948136790165
C         6.23539445491973    4.05977426664218    3.82347935598494
H         7.15688257575483    4.62863448713334    4.04694058105953
C         6.00011374840630    4.06287302730543    2.30835229182906
H         6.70803116777878    3.39757737324532    1.81291965739145
H         6.11313952427972    5.06840249852518    1.91013623990081
H         4.98543422777665    3.72787735624180    2.09961025527535
C         5.05007323877869    4.76041260411152    4.49966459166911
H         4.12713098527270    4.23753611110389    4.26913680903487
H         4.97297372375037    5.77446943938170    4.11546449355830
H         5.15596134627859    4.80988751692299    5.57723621497733
C         6.90585580336289    0.22526469299551    6.80132317958629
H         7.63001417703568    0.72392567652823    7.46683485073194
C         5.55293465494627    0.16237027429671    7.52466459503927
H         5.11028852162555    1.14976116376861    7.61284692582823
H         5.68446304440920   -0.24786939486864    8.52260388720210
H         4.86434001278675   -0.47874891169673    6.97748773300762
C         7.40377786873346   -1.19461342384216    6.52072709192827
H         6.81437727337205   -1.63083630237830    5.71031136683794
H         7.29489583215886   -1.80918704319980    7.41100810008394
H         8.45233529256529   -1.18613925989125    6.23771710843017
C         4.35700077229953    0.08711437362324    3.22136934802710
C         5.02268818583400   -1.09031644509682    3.65481764435773
H         5.25081309558342   -1.83570145411884    2.88773379493906
H         4.68417053776647   -1.52392159860899    4.59454353900330
C         4.67706222607970    0.64847026021074    1.96607349087748
H         4.89955819970118   -0.04995866109837    1.15771745117064
H         4.11199564915401    1.51891799033896    1.64903091600448
C         3.64882481852591    0.92471941004667    4.23949879502293
H         3.90027858082331    1.97273654070567    4.07068905282420
H         4.00950089804020    0.64281140217022    5.23121193223158
B         1.98899768968120    0.77017324105749    4.28313354364609
C         1.74321506802569   -0.78826919135396    4.69480220292041
C         1.99639374021171   -1.81008873239376    3.78048110342627
F         2.34568822222361   -1.50748522210231    2.51576682489339
C         1.91573605849090   -3.15903531649195    4.09691992260047
F         2.19377044575166   -4.08935965816636    3.17099006518690
C         1.57544026838255   -3.54452032997210    5.38733823550929
F         1.50807124195529   -4.84050833645033    5.71598854704165
C         1.33036117507964   -2.56011039312265    6.33391995392143
F         1.02641257555670   -2.90435272461551    7.59323288615727
C         1.42469100491584   -1.21803763501871    5.97707019391857
F         1.21569626788148   -0.32259206342062    6.96159643775991
C         1.35768743240781    1.81440546673096    5.38696426010429
C        -0.02646923493003    1.96289265999306    5.47811920028347
F        -0.82668287132462    1.23007227851632    4.69007796372225
C        -0.66006549391298    2.83439915352994    6.35597736945511
F        -1.99533097581327    2.92019773876162    6.37601159849464
C         0.09771145195673    3.62360625798905    7.21124912321667
F        -0.48623123261972    4.47563022658371    8.06008020147156
C         1.47699143527658    3.50406094248912    7.16058527938027
F         2.25285456016837    4.24441164471658    7.96994262358075
C         2.07240827634683    2.61718424602176    6.26931371953644
F         3.42279982169979    2.58414622720675    6.33054818821324
C         1.28659722898911    1.15921111470662    2.85122985618356
C         1.62928833324222    2.32941088016508    2.18344209688758
F         2.55257755499037    3.16484525840136    2.71469070526676
C         1.08133036916619    2.72954982449354    0.97167274093313
F         1.50219400530645    3.86358760854564    0.38645343439571
C         0.10659952601419    1.94751902292074    0.37050103510245
F        -0.42921451740162    2.30543816995335   -0.80163739373251
C        -0.30306299378896    0.79103078917615    1.01996854659704
F        -1.25733244577582    0.02837678171684    0.47487525360450
C         0.27591608361059    0.42466528850617    2.23180608632032
F        -0.21000484829157   -0.68812799387608    2.79477338996557

