119
CSD_code = UMERUA | q = 0 | S = 0 | Stoichiometry = C58H50Cl2N2P4RuS2 | MND = 6
Ru        4.05171631730027   11.92337241462783   13.20503945258144
P         5.99815293128092   12.14885548200369   14.36392970010564
Cl        3.08059717156702   13.49624253400617   14.71054678367735
P         2.19695601503815   11.27595612722055   12.05630405099040
P         5.69451123752956   10.83969797685743   12.03475519213383
Cl        4.29821580343437   13.70427257861814   11.63921524919613
N         6.85883466039170   11.09355361804003   13.29600338762904
P         2.99920723546688   10.30034256081037   14.42962666823275
N         1.84593755868122    9.99761434539838   13.16894499138398
C         7.05717811392259   13.61490942877375   14.54750436239774
C         6.09015575984722   11.15992734685839    9.30888412386664
H         5.50511188093963   10.25446279017348    9.21558210415455
C         0.62703200566356   12.16361240286059   11.82847287256832
C         6.08368947486523   11.48436883361580   16.05145466272794
C         6.40332978713635   11.65188072863848   10.57239054064513
C         3.54471037609719    8.64947628374654   14.98780096099899
C         0.17859835781967   12.04723847480162   16.80548370856585
H        -0.70933098727225   12.64789498061146   16.67348572468221
C         0.85869203323743   11.57652680110121   15.69900021336436
H         0.51517620510975   11.82553130271168   14.70287690503706
C         6.73316260179569   14.77160531264893   13.84659593261921
H         5.84197606269291   14.79207026514399   13.23113149197434
C         2.00324272504905   10.80205000693983   15.86372255546554
C         4.86462253527353    8.28984361256714   14.75157111053826
H         5.50967423822555    8.99689118085566   14.24554224759110
C         5.42780490126693   12.27859065653571   16.99175460570876
H         4.96208918173141   13.20148124435984   16.66809744707620
C         6.65954395831252   10.28447632095467   16.44355587751214
H         7.16943467047490    9.66520720370038   15.72399269519196
C         0.55675294281198    9.33584597785932   13.35686201573062
H        -0.25478081622363   10.00049156799259   13.03285675951051
H         0.42872124857359    9.14604367092952   14.42993017065329
C         8.30827869035832   11.02471155576379   13.12376523784509
H         8.76422887286100   11.98150582468796   13.41016781052181
H         8.51354247976217   10.85907322159690   12.05882636170154
C         5.35968196889200   11.87795505126501   18.31130265794317
H         4.84915650486182   12.49515147818735   19.03575864736175
C         7.54927397905511   13.50527060049372    9.56312578558867
H         8.10394688530154   14.42680106078630    9.66194921501062
C         2.48165281847949   10.53845365401213   17.14359546277399
H         3.39058939910051    9.96488370325443   17.26889205851085
C         7.54596431376533   15.88712335342503   13.95301281833082
H         7.29255637531333   16.78757773461647   13.41364394439936
C         5.88784311261307    9.09094004455038   11.54541983111750
C         8.18430610115391   13.58240883832601   15.36635119834754
H         8.40950761279557   12.68790582675615   15.93263115716654
C         7.11855605618336   12.83955102864165   10.69441206346696
H         7.31856752883310   13.24983720569763   11.67617538177137
S         8.52564844729881    8.28181377161573   13.71409742507999
S         1.51825485347177    6.73357468393522   12.88643744311139
C         5.94038957772373   10.67997430985192   18.70034684127281
H         5.88669706403386   10.36304361054639   19.73201801571108
C        -0.38218089981984   11.63410499786188   11.02658155911884
H        -0.21598166733684   10.70257327394940   10.50098425696133
C         2.93072793129256   11.15324969314211    8.11855550836127
H         3.15383938857794   11.89984106822300    7.37074575329018
C         8.67649935581714   15.84898177615105   14.75205990928370
H         9.31084824885941   16.71978761195838   14.83361498356077
C         8.94283812078670    9.95094269002747   13.94058640234861
C         0.44207775059108   13.38048660684141   12.47597701584570
H         1.24223040403883   13.79248772624353   13.07881398891478
C         7.02959686237021    8.60724174737416   10.91368429604646
H         7.84811719839576    9.27322489006486   10.67893650560687
C        -0.75724784762083   14.05685757188169   12.33319611871380
H        -0.89988600785398   15.00457441287821   12.83062849171929
C         2.69247725335320   11.53601178220709    9.42357096857872
H         2.73976861089932   12.57894728689867    9.71241270574543
C         5.34016189712772    7.05574980504308   15.15261663441772
H         6.36698910707810    6.78434613887560   14.95627393691868
C         4.82830482433724    8.22870465600488   11.79322880050905
H         3.94045175675730    8.62533842546808   12.26921987063688
C        -1.76732255694519   13.52183464796022   11.55119072514682
H        -2.70336290125462   14.05006438289708   11.44091687613032
C         2.37192694934894    9.23321594821832   10.04698335882623
H         2.15025487114970    8.48490931873393   10.79014974606674
C         0.43783979749658    8.05979703886366   12.59477714322062
C         2.40711036008017   10.57606921562677   10.39418881491793
C        -1.57892479117958   12.31335262205741   10.89684453678718
H        -2.36582215859861   11.90439492943026   10.27891432481954
C         7.11231663369415    7.27165156817652   10.56714820442523
H         8.00339239750320    6.89838376215656   10.08363850376358
C         7.25160366307018   13.00344270220221    8.30627361859506
H         7.58078228227018   13.53130626169231    7.42307458162504
C         6.58683026824306    9.88691135043802   17.76717791109247
H         7.03819133028466    8.95202349812572   18.06811207365488
C         2.89087794457409    9.81026722367870    7.77441226895932
H         3.07919714026028    9.50779290867478    6.75426539612467
C         2.70490652185803    7.76560427275006   15.65887760007527
H         1.68510656119905    8.04490846327197   15.88406421903456
C         2.61286005205009    8.85505314837424    8.73768156284570
H         2.58293117296424    7.80785241410318    8.47167823284112
C         0.64685862185823   11.76759236995384   18.07930587341804
H         0.11890721649210   12.14534572000038   18.94277855371217
C         4.49469270908614    6.17172977315156   15.80069734686703
H         4.85929678036173    5.20468686138431   16.11500333751636
C         6.51883577084886   11.83461247504056    8.18107091851234
H         6.27207151337573   11.45047027860616    7.20174831319661
C         8.99349149888707   14.69899846650879   15.45996432652577
H         9.87079128510175   14.67677941243043   16.09096136187829
C         4.91013196248190    6.89463606496754   11.44188798386610
H         4.08211691387326    6.23190131721630   11.64593889749565
C         6.05711915465609    6.41372319230697   10.83403098951493
H         6.12867595299001    5.37137966645442   10.55963768882482
C         3.18069298501319    6.53030805084201   16.05683557479960
H         2.52387459576982    5.84444978525740   16.57195905002582
C         1.79985114423116   11.01824723432148   18.24625484257195
H         2.17545058228489   10.81324362212366   19.23842601886852
C        -0.45988112595175    7.75371006234646   11.61837351584702
H        -1.22404562337146    8.43423425708925   11.28713362135283
C         0.74150910302128    5.79182461657743   11.67156579948413
H         1.09796736550616    4.80117410500105   11.47018656639043
C        -0.28823583174860    6.45423127353034   11.09012614678388
H        -0.90345380190920    6.04032454002821   10.31171354557618
C         9.87112937103902   10.09367700544675   14.92584370548418
H        10.27284019937863   11.04637869955417   15.22209321903374
C         9.60861428209454    7.80794132942265   14.96664075976254
H         9.69963077121302    6.76895442412192   15.21406136346037
C        10.25472564402616    8.86682482361085   15.51301364466304
H        10.97525430377521    8.78464214418910   16.30664570750838

