55
CSD_code = UMETOW | q = 0 | S = 0 | Stoichiometry = C24H18CdN12 | MND = 6
Cd       -0.42075449538431    2.05852465727191    5.57800536579970
N        -1.24992069579941    0.32290280805296    4.20643939043209
N        -0.41694326703967    1.19684287402774    2.18315718085552
N         1.15434653483623    1.77288363381467    3.84432511556034
N         0.80446305767997    3.35697411259432    6.67181216244141
N         1.25120437745382    4.02653538375293    8.95210168050602
N         0.87430033239170    2.95136631387210   11.10788531631622
C        -2.19558520355901   -0.38187375301805    4.82937178955959
H        -2.01845245240695   -0.55330412796704    5.88375828201269
C        -3.32006214331753   -0.87560460562841    4.20293407539021
H        -4.05247696073852   -1.44307752601783    4.75370569999947
C        -3.48937287221005   -0.60960139056566    2.84540247226008
H        -4.36630886525755   -0.95727663942914    2.32037854274657
C        -2.51723227404173    0.10067630847878    2.18309535214627
H        -2.60877009539626    0.33537689788905    1.13370802236861
C        -1.39078357460192    0.54779733003784    2.89944778834607
C         0.73579766076376    1.83297735106881    2.57915895727323
C         1.46617721004669    2.50248458993949    1.58070255632625
H         1.06931083543488    2.56117336387584    0.57874206447511
C         2.66306651240161    3.09136929105774    1.91312370680055
H         3.23827251715391    3.61971497261439    1.16790978512064
C         3.12035780918386    2.98868356438378    3.22478867566132
H         4.06115894445782    3.42212064126872    3.52194295014695
C         2.32840358727155    2.33355171551511    4.14366925193930
H         2.63636208482298    2.24162429352753    5.17831614543747
C         0.97509491692708    3.63403981573688    7.79827914692856
C         1.05775757481861    3.46232118214260   10.08549685790685
H        -0.68700150599467    1.40933943143568    1.22278331013771
N         0.40790421796830    0.32269559095307    6.94979916738899
N        -0.42359803094038    1.19838460264904    8.97294519906824
N        -1.99576815060747    1.77308677739444    7.31212377380356
N        -1.64636000463508    3.35750158887033    4.48453675088017
N        -2.08905197798408    4.02692595766638    2.20346128612541
N        -1.71051720261455    2.95124758139668    0.04829623212457
C         1.35330684069478   -0.38224647191967    6.32669134663361
H         1.17573046108420   -0.55398541270494    5.27238660412316
C         2.47831696112109   -0.87536640557028    6.95267119879831
H         3.21083362495787   -1.44240384226319    6.40158559770955
C         2.64801540641323   -0.60929848215807    8.31010201403730
H         3.52512948243958   -0.95689129268516    8.83488214357271
C         1.67596422553862    0.10084966293226    8.97269115581895
H         1.76769124301349    0.33532776779246   10.02210378579090
C         0.54944606392938    0.54817558900332    8.25660900276383
C        -1.57680270915117    1.83381516760781    8.57713774483198
C        -2.30697186903987    2.50361820802477    9.57553035859571
H        -1.90995683550400    2.56261362433692   10.57738053380299
C        -3.50391222200252    3.09244769241639    9.24317804201600
H        -4.07890995717343    3.62111585608676    9.98831606728366
C        -3.96143257245842    2.98946490652460    7.93162029577591
H        -4.90216513524299    3.42303599322653    7.63447641670505
C        -3.16981810146193    2.33375755292617    7.01283313717192
H        -3.47813026805905    2.24125869792184    5.97836208418808
C        -1.81510478252556    3.63443121907124    3.35776890990369
C        -1.89482054319463    3.46257052898338    1.07036198976800
H        -0.15312771444525    1.41112485179259    9.93310751641424

