51
CSD_code = UMEWAK | q = 0 | S = 0 | Stoichiometry = C22H20FeN2O6 | MND = 6
Fe       -0.00020583023028   -0.00030952084283    0.00039470129001
O         0.38628354370640   -1.70473699337799   -0.97577904945580
O        -0.75857119635443   -1.26339777559527    1.64285699108965
O         2.01381849968743   -3.19493776005236   -1.30387953712273
N         1.79019606961856   -0.20762252569110    0.57025461888977
C         2.43972994859712   -1.28738641915694    0.06095242614484
C         3.75568014471606   -1.55082247197409    0.31900367689035
C         4.49412922430642   -0.67696596780460    1.14579895918179
C         5.85117950116223   -0.86938143026798    1.46669618734095
C         6.50228202911058    0.02391274216439    2.27406014228311
C         5.82848688666933    1.14206934079857    2.79316550872502
C         4.51025326884746    1.35756029617380    2.50092131639904
C         3.81135253809973    0.45505819014272    1.67117861990723
C         2.45405436595802    0.62713447456261    1.33767919123617
C         1.56409533488727   -2.16591325283827   -0.82877204865540
C        -0.33592246511995   -0.98483705236280    2.96787910470604
H        -0.58624956147426   -2.19094001769577    1.43504517983397
H         4.20844248660524   -2.42719401552929   -0.11932373958159
H         6.36370346842597   -1.73048081173326    1.06423229340588
H         7.54352799613477   -0.12447085676370    2.51900972972888
H         6.36453652285904    1.83218467538638    3.42763937279986
H         3.98385720455318    2.21393363758633    2.89478186883208
H         1.88961530095065    1.46897978478788    1.71006490006619
H         0.70590020697819   -1.27229548742087    3.12990720314713
H        -0.97733762343136   -1.50422690639757    3.68579236268792
H        -0.43462406979467    0.09048480654912    3.09931334475847
O        -0.38651518529227    1.70440092809339    0.97622065986211
C        -1.56372148118516    2.16661462048875    0.82770134386981
O        -2.01278538776308    3.19666270784484    1.30120155573311
C        -2.43949411795831    1.28804426989553   -0.06185951190479
N        -1.79058001347941    0.20721229215740   -0.56968112999866
O         0.75837683777240    1.26266979765211   -1.64214499626189
C         0.33658405918897    0.98352405628743   -2.96730906096639
H        -0.70541583992912    1.27005864874589   -3.12984829677972
H         0.97789218254267    1.50331106761548   -3.68502449835377
H         0.43624243693109   -0.09174729390953   -3.09848934610242
H         0.58585349877230    2.19026820636768   -1.43483354894798
C        -2.45481608018955   -0.62798504256124   -1.33630023338534
C        -3.81189024821784   -0.45532164386429   -1.67042536056503
C        -4.49395397810019    0.67793334508778   -1.14677213785994
C        -3.75512529645578    1.55222990080331   -0.32078425488446
H        -4.20736944897562    2.42948444543333    0.11631008504057
C        -5.85074224095324    0.87100331554744   -1.46838846853604
C        -6.50229942626096   -0.02287866134376   -2.27473366915422
C        -5.82922689462294   -1.14228218342516   -2.79208974187007
C        -4.51125012281918   -1.35840180383419   -2.49915655844849
H        -3.98540989632930   -2.21572661983269   -2.89169024703398
H        -6.36564846112474   -1.83288167579684   -3.42572196956802
H        -7.54336437429999    0.12596906595554   -2.52017821415628
H        -6.36271184641908    1.73305870746719   -1.06726721393366
H        -1.89084247030026   -1.47061913352702   -1.70760851032234

