76
CSD_code = UMICAV | q = 1 | S = 0 | Stoichiometry = C38H31N2O3PRe(1+) | MND = 6
Re        7.94879747265022    4.82545374571474    5.11997485696432
P         5.85933927141333    5.97043025962827    5.77007100372081
O         7.34138417684312    5.25657462837735    3.19514152991024
N         9.52536019680058    3.58691607997105    4.42554351077681
C         8.12127761147264    5.10580143082883    2.17030670653589
O         7.00912886739045    3.28115572429775    5.16627223459218
N         8.74199515416887    3.90709966515783    7.09900366528403
H         9.19494695341576    4.64399110217095    7.64492301569979
C         9.37734202621934    4.41819292880866    2.13887628302048
O         8.89817773092539    6.16357090069650    5.36637058897367
C         9.96687060088238    3.69986786511284    3.21351593162225
H        10.88817501839222    3.18463083896058    2.94329984906533
C        10.10770162603531    2.75286950599546    5.38098827569901
C         9.74744071958748    2.92420591559972    6.72936317772998
C         7.64715848628223    3.34183147415105    7.91876417036970
H         8.01557095323903    3.01338135347209    8.89708970829611
H         6.93114580958159    4.15668021744715    8.08847423762324
C         6.94974896214524    2.18344280289138    7.24840841138933
C         6.63838508675163    2.23832225117931    5.87332904839603
C         7.65844085467297    5.68272297977146    0.96383292709812
H         6.70594565398065    6.18876116410695    1.00597024891173
C         8.38495924907889    5.62954960798878   -0.19555042788187
H         8.00218400010464    6.09627619440723   -1.09021383167388
C         9.62367971008529    4.98132879868436   -0.22281015879071
H        10.19743601521867    4.94638625582958   -1.13475336142428
C        10.09462664741322    4.39177193603199    0.91705054141359
H        11.04827773719484    3.88416908016455    0.89767047521800
C        11.00676254236124    1.72960726295689    5.06213124338451
H        11.25413086350679    1.52640703118687    4.03244710943644
C        11.57504349238783    0.94853867568447    6.04775846056342
H        12.26432260235299    0.16541021570879    5.77446269942895
C        11.26682865525958    1.17126690242510    7.37883364832120
H        11.72441634936726    0.57714813684802    8.15321425391810
C        10.35212249460138    2.15414607967644    7.71101173932658
H        10.10804852514317    2.31904955940356    8.74932736223865
C         6.57363069194411    1.06815377586349    7.97612736348173
H         6.81343143548559    1.02103483562455    9.02845287607435
C         5.88891251616191    0.02173083001990    7.38119091291732
H         5.60119422959443   -0.83508710637818    7.96890818698220
C         5.58013204045746    0.07826709313079    6.03196143649937
H         5.04923185050684   -0.73525336627149    5.56288698416065
C         5.95405060515957    1.17210616748913    5.27995855998750
H         5.72581122448963    1.23277341575267    4.22665388691779
C         5.85073469122041    6.86196411841576    7.35031880194227
C         7.06393242779854    7.22034818728722    7.92965076840089
H         7.98496237461866    6.93828763565601    7.43351291420157
C         7.07700705602219    7.95177403163953    9.10428672429151
H         8.01670347716205    8.23543569662639    9.55312628964939
C         5.88296768174656    8.32741164287392    9.69932146022768
H         5.89342137180142    8.89665624220139   10.61594637612870
C         4.67375411613247    7.98447437830634    9.11400354319895
H         3.74578001621660    8.28983567861931    9.57275175383791
C         4.65219524812319    7.25783133445538    7.93748579209603
H         3.71117303262730    6.99991071137317    7.47289401601171
C         4.53966018753154    4.73611587195278    5.82081804076822
C         4.10359358953316    4.16228569623632    7.01112457196364
H         4.45700334010561    4.54341298726152    7.95934382144153
C         3.20761983116162    3.10811097385231    6.98000570214877
H         2.86813767612552    2.66649445657714    7.90436826286817
C         2.75377093807069    2.61582217376324    5.76769114473788
H         2.05767985773958    1.79158839526274    5.74838536707889
C         3.19550008954744    3.17719046928813    4.57888328926474
H         2.84361514777939    2.78893866006073    3.63487354512932
C         4.09249452306234    4.22787470523676    4.60160282448963
H         4.46416856035010    4.66038307856226    3.68194334509310
C         5.35911037957160    7.24399942754043    4.58277419628408
C         4.02326103780268    7.50313125947340    4.29442847134695
H         3.24129264382225    6.91022016526913    4.74846673471529
C         3.70149386734299    8.51830544346094    3.41069700308780
H         2.66617731955033    8.71955435274256    3.18045999895050
C         4.70323534947783    9.27305041931233    2.82161144708515
H         4.44523700691552   10.06019879586426    2.12966929807595
C         6.03427890930495    9.01949049052468    3.11709193849850
H         6.81196038447403    9.60941012716424    2.65650044588978
C         6.36653385170988    8.00863085724911    3.99973561287531
H         7.40057730476828    7.78867731924592    4.23628715596081

