99
CSD_code = UMIDUP | q = 0 | S = 0 | Stoichiometry = C40H49N6O3Sc | MND = 6
Sc       -7.37459958344251    4.25842789546974    1.84407896325600
N        -8.05577489971381    2.72439697327184    0.02858280877077
N        -7.74346062547325    2.94028032369604   -1.26724728470120
O        -6.28133137927801    2.84103242554029    2.47218296056676
C        -8.42357922508523    1.45839945167122    0.12029775672052
C        -8.33172647896785    0.83954402534955   -1.14439270840033
C        -7.89541671404873    1.80895588669876   -2.01151414932852
C        -8.89828081267791    0.85526451745310    1.38656539730698
C        -7.60782265154324    1.74218860981831   -3.46773538404701
C        -7.37476230439412    4.25654189895595   -1.72180135528601
C        -6.12131272704543    1.59708490552787    2.87821325196482
C        -5.36416790982661    0.67909104689565    2.11255497090441
C        -5.18064559123361   -0.61714894626258    2.56184549760404
C        -5.73183007960067   -1.04923615122334    3.75456774688258
C        -6.48940565567908   -0.16519709623339    4.50356282893199
C        -6.69485448240036    1.13803584724776    4.08867937296725
C        -4.76059596362577    1.11392064021399    0.80585125813225
C        -7.53974804304094    2.07184314326032    4.90690391195333
H        -8.55775135311822   -0.18044097369953   -1.37757610144827
H        -9.79796839742785    0.26935685693042    1.20665614504197
H        -9.10536710142510    1.64730010256184    2.10467341066632
H        -8.13567865492962    0.19720551415531    1.80117558868983
H        -7.80789396779450    0.73521167030440   -3.82219248924781
H        -8.23539939112956    2.43244746267904   -4.03273892492724
H        -6.56200806081767    1.97441015177644   -3.66992676918578
H        -7.37511547123592    4.25599805649013   -2.81856662527307
H        -4.59453042011214   -1.30081543315742    1.96107847452311
H        -5.57823954326243   -2.06322379735680    4.09353429743670
H        -6.93506784887692   -0.49530978314785    5.43263486594775
H        -4.80508780505690    0.30818476568322    0.07318380625942
H        -5.29785724858488    1.98193611375280    0.42613303248773
H        -3.71471550458221    1.39455680202918    0.93912853678542
H        -8.02301477476353    2.80510267573419    4.25306404809268
H        -8.30250687028069    1.51903279172173    5.45338143803561
H        -6.92556657357516    2.61033236529848    5.63090384482628
N        -8.33032489406356    5.23443094291212   -1.26810423042284
N        -8.36133496230689    5.61375407224418    0.02744745260546
N        -5.70631736404320    4.43561715138461    0.02732851811968
N        -6.05017913795853    4.59577911387733   -1.26858774009353
C        -4.99562175911969    5.03111056601240   -2.01380874046584
C        -3.93784989012218    5.14126941876045   -1.14717575357803
C        -4.42667576604633    4.75290227074879    0.11817930272761
C        -3.66646877420623    4.64694220332217    1.38443910168450
H        -2.70838806878873    4.16218586409421    1.20512264665093
H        -4.24762614612222    4.07185451006693    2.10375828857491
H        -3.47953333419679    5.63749395338623    1.79723719675498
H        -2.94227268324236    5.45743892012874   -1.38115191512878
C        -5.08259766306977    5.31101970965389   -3.47048249315381
H        -4.11099592142709    5.64157759600111   -3.82602322724974
H        -5.36598654421865    4.42110292834513   -4.03376590333836
H        -5.80747707468138    6.09955332895329   -3.67375231251166
O        -6.69370205824016    5.91382580790778    2.47301821826269
C        -5.69748880858410    6.67487241742019    2.88082696607476
C        -5.28070038999701    7.79014756332877    2.11616759909987
C        -4.25099092877489    8.59765864932853    2.56717647831579
C        -3.60272713576445    8.33632497746570    3.76072111351205
C        -3.99000719939962    7.23779581018539    4.50882933594706
C        -5.01481769300681    6.40775259065798    4.09221716088305
C        -5.40146965723711    5.20870628263092    4.90961674345845
H        -5.79468332146667    4.42390777392803    4.25524595098017
H        -4.54154103490785    4.82418217130585    5.45615233777821
H        -6.17507131137207    5.47102057828179    5.63355884517172
H        -3.48239916911022    7.01681364145904    5.43848115305526
H        -2.80209234135787    8.97656315791729    4.10092247328214
H        -3.95150404951263    9.44734266939292    1.96701434636037
C        -5.95725425337881    8.09544458849811    0.80853077485788
H        -5.23640069592421    8.46075963665143    0.07716891004284
H        -6.43893187042574    7.19591816489667    0.42757862433453
H        -6.72410307545702    8.86015517837124    0.94091509090712
O        -9.14919184438667    4.02051883148986    2.47179411345311
C       -10.30631474145073    4.50348303249627    2.87892843252114
C       -11.48034108451790    4.30761639304916    2.11373689844976
C       -12.69435116592676    4.79663877182791    2.56412792616024
C       -12.79219954491043    5.48896271906090    3.75751540119707
C       -11.64742617421061    5.70185476055761    4.50626195620397
C       -10.41640300102334    5.22824305696582    4.09033267810980
C        -9.18486039864994    5.49136224545570    4.90848288978915
H        -8.30856389707056    5.54501589531757    4.25430554464221
H        -9.28212761346901    6.42696333397337    5.45730023850592
H        -9.02503765227214    4.68848234118276    5.63043436305511
H       -11.70990895124853    6.25186788248851    5.43595783114022
H       -13.74683678830027    5.86305474974144    4.09719115912255
H       -13.57977511382240    4.63182039232511    1.96353518648588
C       -11.40663440753302    3.56864529371131    0.80631333645788
H       -12.08114126929989    4.01201684057702    0.07388159107544
H       -10.38617243803546    3.59834581075740    0.42682678234313
H       -11.68865650748133    2.52300987912323    0.93850322654999
C        -9.27470120294313    6.56449046763196    0.11859788476967
C        -9.85691882622007    6.79291720267432   -1.14619067798907
C        -9.23487743288193    5.93025482995581   -2.01275753991694
C        -9.43633370722884    5.71331402225508   -3.46881257773418
H       -10.20859703629468    6.38947773571067   -3.82388735792968
H        -8.52478612474888    5.91157839217377   -4.03389143523490
H        -9.75770836630730    4.69120884802313   -3.67022055990854
H       -10.62793687702768    7.49773904291445   -1.37980493143202
C        -9.56030926873291    7.27748566836019    1.38454101546748
H        -9.61853785138080    8.34949211077447    1.20427094650271
H        -8.77085965626280    7.06150881028967    2.10289614681450
H       -10.51137196477296    6.94559569051024    1.79908479492192

