55
CSD_code = UMIFUR | q = 0 | S = 0 | Stoichiometry = C19H26BrO5PSi2W | MND = 6
W         8.34947926679185    2.51948887449635    4.81863049292499
Br        6.57357425295272    3.95562346598491    1.89099314958346
P         8.12267160007705    4.51543245662052    3.37676450114219
Si        6.22353882176818    7.14630890437343    3.16270352455430
Si        8.96896943643535    6.96871422143641    5.01944169660574
O         8.36824042312905   -0.06514232830068    6.57711073037647
O         8.66600637163357    0.71152530230945    2.26540910208018
O         7.77024035303060    4.18271064907742    7.41115698176219
O        11.43228549304988    2.40493180338815    5.36926062782968
O         5.21915287105858    2.31843446653093    4.77850098791070
C         8.37035901498325    0.87985349950939    5.93449087997439
C         8.57323547301380    1.39900817965270    3.17005050188675
C         8.03954000634681    3.59916986854264    6.46240638660525
C        10.33077627304636    2.52802029956866    5.08892667468407
C         6.35698882408482    2.39609077839800    4.72485641747787
C         7.49724568459147    6.05302217069064    4.14670215493577
H         6.90227789148245    5.65847160339319    4.98193593931933
C         4.52311874023523    6.27584504484290    3.13071599064053
H         3.73814187490994    6.95998500707512    3.43926461118931
H         4.48816810805605    5.41986215004456    3.79879131369674
H         4.27385990555722    5.91167512967941    2.13939157217134
C         5.94790117944132    8.76355333358169    4.13094189004671
H         6.84369403499109    9.36354447434478    4.23341964252304
H         5.55999901455226    8.56976262230755    5.12500024887303
H         5.21142721295657    9.36577331918916    3.60978203654452
C         6.83290403281458    7.59339918296582    1.41127969395117
H         6.78757880206484    6.74554285934669    0.73508053658999
H         7.84596871976332    7.98440913255082    1.40878252091924
H         6.18987860295282    8.36374790483077    0.99697109945190
C         8.30459317116596    7.73776987414432    6.62907650602511
H         9.12091836557236    8.17154192580312    7.19768225412846
H         7.83066834766360    6.99210900852993    7.26028777732850
H         7.58156868360989    8.52341755568811    6.44674520305070
C         9.70508893685829    8.31588495951993    3.88149873234309
H         8.94983986177156    9.00830157403289    3.52780828170216
H        10.21183273018389    7.91334881912157    3.01003662912534
H        10.43658537510187    8.89218978801724    4.43912803060353
C        10.39874649114504    5.81604435049095    5.54159493039531
H        11.25750178586981    6.40605744453902    5.85065319392681
H        10.73102829417821    5.15482461869192    4.74733718558188
H        10.11954814471864    5.19269096635946    6.38626424353144
C         9.37446838705448    5.08641928701434    2.12404662439792
H         8.88212304849254    5.74069682321271    1.40014139460881
H        10.13959010440616    5.65104143421803    2.65766155372567
C         9.97628720654371    3.88114988681888    1.46857645648754
C        11.03197832511441    3.21844958772577    2.08698444652423
H        11.46360868728246    3.63019652608087    2.98883443214663
C        11.56134552903805    2.06499121117501    1.53760244004827
H        12.37875308208594    1.56242840929640    2.03315291502879
C        11.03890575427175    1.55704129815893    0.36032268529746
H        11.44180817862664    0.64971486028395   -0.06332480443528
C        10.00385333104120    2.22170464451462   -0.27416201245205
H         9.59801656056230    1.83732781295488   -1.19745827935516
C         9.47645937472675    3.37820467825037    0.27312168313430
H         8.67045995719473    3.88888827893438   -0.23337440914086

