42
CSD_code = UMIGAY | q = 0 | S = 0 | Stoichiometry = C12H20BrO5PSi2W | MND = 6
W         2.07613141464935    2.00533366673061    1.86861924433325
Br        4.70608872850910    4.33144348056654    3.73038663188735
P         2.65285530627201    4.07204715776348    3.03723579889210
H         2.73307190365119    5.19566995922005    2.19406592502793
Si        1.42802975677780    6.64083961871370    4.25748675370310
Si        2.02455451683741    3.90329065959741    6.08829427421689
C         1.56118477721005    0.39572988799298    0.81721115939965
C         3.43559121156055    0.89771828831039    2.84079234683746
C         3.48900177824973    2.47571540552447    0.52833445861170
C         0.75672545280250    3.13514309479080    0.88297424064619
C         0.61733309370686    1.59435715351773    3.16828818035771
C         1.61186278355894    4.72050413812600    4.37667141824822
H         0.62758906854579    4.31506901995712    4.10856988499076
C         0.45204307295845    6.98059754100429    2.65044070147991
H         0.42363014015485    8.04281308814536    2.42787778900827
H        -0.57635965589124    6.64024721991352    2.73770940486796
H         0.88334307766788    6.48068370044282    1.78637993135588
C         3.12819278528855    7.49804839118606    4.21243286931015
H         3.00706423074034    8.57585878938910    4.26623733651366
H         3.67156453329206    7.28238485018271    3.29631690453937
H         3.76247294506931    7.19699646872732    5.04038894657457
C         0.39064281256793    7.27523141144742    5.71875800953273
H         0.87097608011648    7.10607801894161    6.67539770092716
H        -0.58625798465056    6.80435500513488    5.74891282936526
H         0.23245737820926    8.34316330927519    5.61589867269172
C         0.35638541912867    3.74640966815453    6.99143427238815
H         0.50479359645549    3.31988596932531    7.97729616549735
H        -0.32999773211076    3.09733930704721    6.45626425224097
H        -0.12952142286534    4.70662917667050    7.12076294140394
C         3.24563276746735    4.97927744101784    7.07860302338289
H         2.88591251277856    5.99455270173839    7.20739631248253
H         4.22378680673872    5.02750153998038    6.61053865271744
H         3.38061104574845    4.55454500033528    8.06825732191879
C         2.75772764814455    2.15502086293236    5.89354767730367
H         3.76951142597275    2.17433034820606    5.49897898836886
H         2.15370921992043    1.52754819295683    5.24184825780157
H         2.80469773701440    1.66144422171790    6.86012530502013
O         1.26214928599398   -0.51563400323396    0.19949497988534
O         4.23471757182017    0.25894060903131    3.34257727173134
O         4.27050390028452    2.76499095024382   -0.25016256633658
O         0.01275695784148    3.81488612848510    0.34355194401185
O        -0.27026594818049    1.40961256078192    3.86550378685384

