54
CSD_code = UMIGEC | q = 1 | S = 0 | Stoichiometry = C15H33N4NiS(1+) | MND = 5
Ni        2.45068328625046    3.53053774809542    1.07288414099226
N         1.73468371895609    4.02217632673418   -0.70702836660570
C         0.27133628538286    4.26573945244133   -0.66779956558333
H        -0.02646904628080    4.63544600887649   -1.65951917915377
H         0.08719780373459    5.06599770014216    0.05319486669862
C        -0.67298830471688    3.11107930611929   -0.32131612451245
H        -0.53221605925481    2.27074718981781   -0.99858208689733
H        -1.68363648075875    3.48430898528412   -0.50070156646431
C        -0.61652394884828    2.65005730130772    1.13574017724372
H        -0.82851903040290    3.51223317191206    1.77535948482624
H        -1.40757059435405    1.90399870563424    1.30189933649444
N         0.69339695814239    2.10760001608068    1.50517811938496
C         0.83465773826177    1.98860775208942    2.96333348924898
H         0.33948329500788    1.08129349679410    3.33796628633379
H         0.35272801937641    2.84286274193767    3.44384845917477
C         2.31454348756708    1.92946993099887    3.34102837584603
H         2.40588392551423    1.80135044019371    4.42736939185958
H         2.76724188504244    1.06169459854330    2.85893960237797
N         3.07890263471510    3.12543826332309    2.91142592817892
C         2.68717169677116    4.25032062155965    3.79761041824420
H         2.80881614013028    3.90726020196955    4.83459156205169
H         1.62612688429517    4.46132703806003    3.63988216725353
C         3.44570247710066    5.57289964562884    3.66678707471447
H         3.20729634039440    6.16328754356355    4.55369998239830
H         4.52050250936558    5.40642968995637    3.68186749442490
C         3.03145861994505    6.40017253503773    2.44979615287872
H         1.96625299184629    6.63115913126439    2.54309590695104
H         3.58177527280005    7.35148215932387    2.45077233328472
N         3.24138238840330    5.67733221471488    1.19370740779138
C         2.47090396373280    6.28200880407622    0.10049704603791
H         2.93808397288740    7.21415123427526   -0.25165279919767
H         1.47303332468455    6.53554536875800    0.46653043032973
C         2.37494274546830    5.30998842767530   -1.07383827802885
H         1.81677460135036    5.78051251527551   -1.89342110067722
H         3.38310500977016    5.10478505000108   -1.43160204402440
C         2.04902571646896    3.03196075269639   -1.76614200323683
H         1.80826371213949    3.45552146452757   -2.75223231412919
H         1.42594266848427    2.15429339167616   -1.60535790361227
C         3.49726023289745    2.58168214410892   -1.70105207180324
H         4.19562438059774    3.32443415330007   -2.08968703086777
H         3.63468048620818    1.65995374128618   -2.26691972795801
S         3.92638934531245    2.22083346547938    0.03047106441307
C         0.86541077127307    0.77383538810162    0.91506190089531
H         0.20884448246419    0.04486483504975    1.40443796786306
H         1.89996120258700    0.45122381724484    1.01181391139800
H         0.62408727096167    0.78483739526556   -0.14270570810458
C         4.50184681193685    2.81458601268509    3.10642429655792
H         4.71696897635763    2.65920356384808    4.16838333102729
H         5.12766109552651    3.61254732772647    2.72230922980752
H         4.75888261594128    1.91247231125423    2.55541359547248
C         4.67028834289007    5.68185760752545    0.84098893053332
H         4.94758528930979    6.61527813844163    0.33882963264403
H         4.90611148483689    4.83613202581830    0.19422806989327
H         5.28092060152663    5.59278114649884    1.73399030533088

