90
CSD_code = UMILAF | q = 0 | S = 0 | Stoichiometry = C45H38ClIrN2OP2 | MND = 6
Ir        5.71780374084466    8.72017562825477    2.65698794478446
H         4.55248511747962    9.47959767841911    1.99787653891297
Cl        7.58867182605319    7.59760030941991    3.68021466181274
C         7.01315287387500    9.71058521480642    1.46794780737381
C         8.03665582369207   10.54664403479845    2.16710507946839
C         9.18852005638053   10.95330171210328    1.49970200231712
H         9.31979104890202   10.66459159544036    0.46700425760321
C        10.14284910120483   11.70525913508664    2.15921989305674
H        11.04070698969764   12.01042705525489    1.64175532576124
C         9.95143848294897   12.07175004514262    3.48324593102017
H        10.69831032048498   12.66355180837036    3.99271927671925
C         8.80720624778270   11.68025110580309    4.15809968650255
H         8.65773409040951   11.96823441857876    5.18961528436819
C         7.85917899720123   10.90510613906826    3.50744224714341
C         5.48287258856345   11.92993146970481    4.51773740971661
C         4.59340576898665   12.38506869159569    3.55120756339625
H         4.38280667136252   11.75224412215996    2.69931847197114
C         3.98866540715817   13.62172098302293    3.68559361487912
H         3.29613664550868   13.96952699651540    2.93275884373032
C         4.27110394400515   14.41417218465485    4.78597679107812
H         3.79968544039671   15.38010096650081    4.89367458779999
C         5.15883384957753   13.96625150172310    5.75087437421381
H         5.38028670013040   14.58373214287507    6.60955721836237
C         5.76479482906313   12.73008760475685    5.62014512493345
H         6.44878588986212   12.38229683073972    6.38197931428819
C         6.67675763430787    9.80818312146305    5.93490201904116
C         5.61329539979213    9.76163775102313    6.83403141172069
H         4.63104463305103   10.08850947107981    6.51350076846981
C         5.81234850613636    9.31085760504666    8.12385248350193
H         4.98699509843234    9.28597061091060    8.82042523001255
C         7.06914382795328    8.87932591680492    8.51712921588558
H         7.22436491587353    8.52013789581125    9.52409571293952
C         8.12225671694381    8.89960115339497    7.61838389469531
H         9.09848255911971    8.55005650219583    7.92192197826764
C         7.93169178644706    9.36065964643205    6.32790043496876
H         8.74781798148956    9.35694962467250    5.62082527869351
C         5.43877321527714    7.22983632807139    1.33040392080168
C         5.11119467050919    5.90430147220600    1.86259796039769
C         5.52435699767184    4.72253802473674    1.24041556558354
H         6.10513367733053    4.76581161476562    0.33177148499160
C         5.26156156179148    3.49372987494290    1.81634965942295
H         5.59632684351637    2.59212210170413    1.32467330425474
C         4.58532601648137    3.41160892349616    3.02342992288877
H         4.37386331436931    2.44819722783294    3.46344273041966
C         4.22259397291041    4.57090377070650    3.68698837166834
H         3.75113764758112    4.51721224149478    4.65919899649511
C         4.49452865468762    5.80869881361820    3.12291691666386
C         4.38058400369494    6.87150309287849    5.72792770047257
C         3.37409708251727    7.06828565651138    6.66751834892634
H         2.43376636793197    7.51299452024232    6.37239462266718
C         3.57258043370813    6.68326594833526    7.98143361304452
H         2.78272411297039    6.82745775137914    8.70526883632308
C         4.77441730949933    6.11604075248622    8.37009068343117
H         4.92325550897574    5.81754209622512    9.39771292509629
C         5.78706071262483    5.93865419979121    7.44088281394589
H         6.73056254622791    5.50808966040214    7.74246288936637
C         5.59481642717036    6.31507521977469    6.12636108156328
H         6.38800453641683    6.19606631722781    5.40201441294537
C         2.44582961991158    7.69272875500911    3.84771628459054
C         1.51883203242832    6.72473499177017    3.48551174909062
H         1.84889269635829    5.72779180388248    3.23017042758454
C         0.17124215625417    7.03921088746390    3.45226925962603
H        -0.54910181857517    6.28278947948983    3.17555052799495
C        -0.25738990727466    8.31480815088628    3.77910383871959
H        -1.31151082609493    8.55155788047409    3.76006545743681
C         0.66680602104663    9.29013184945613    4.12160934116166
H         0.33552182927894   10.28959232326044    4.36512954903969
C         2.01316221420899    8.98180101643216    4.14772845946677
H         2.74827841646599    9.73675741288733    4.39820206638981
C         4.97454696171305    6.65052508097158   -1.05767903584387
H         4.34174089676603    5.84763994123459   -0.67493557413769
H         5.78161151426742    6.22890132638692   -1.66667796146933
C         4.11530352719495    7.59326091751653   -1.91149335675599
H         4.73696368885770    8.38202740726972   -2.33587709491069
H         3.65854654846547    7.01787068181551   -2.71707615388824
C         3.04174153913185    8.18794452575022   -1.04131506730669
C         3.11374236354494    9.50164121023078   -0.59310057546404
H         3.93526143142220   10.13660593199157   -0.88579851602077
C         2.11647970356703    9.97214351843716    0.24419167080895
H         2.14453491759354   10.98700297882353    0.61268361624423
C         1.08746174351632    9.11848843704137    0.60405147528514
H         0.28963905663122    9.44405427091164    1.25203464888242
C         1.11483628103050    7.82266549147369    0.11406153007267
H         0.34022898226168    7.11124742093897    0.37049982076900
N         5.52326525600023    7.41285613395147    0.04001709253953
N         2.06160175670061    7.36664975486299   -0.68457697454193
H         5.94597316538686    8.31460379093740   -0.23568635193476
O         7.03318100498969    9.63742878064769    0.24589026792558
P         6.30200025744672   10.31665234881922    4.23618161720537
P         4.23732984388684    7.38605121634570    3.98706352071442

