87
CSD_code = UMINEK | q = 0 | S = 0 | Stoichiometry = C28H52O6Ti | MND = 6
Ti        0.87699746196987    6.56212146903922   14.00851369382575
O         1.97821757390807    5.09901166316919   13.40961277888516
O        -0.43999972318390    5.54992973204638   14.47841177809088
O         1.78954565399080    6.21881225069407   15.75880479566082
O         2.52927577194256    7.64209910284686   13.77735117006075
O         0.22487169126252    8.17442259391031   14.87132865403363
O         0.31298744182911    6.94590955340541   12.40947662528545
C         3.73783210336345    7.28391056787468   13.79728778246735
C         2.69092602209911    6.24326645874155   17.94806321573310
C         1.97580841813234    4.92715121070837   18.28412281732803
H         1.85317498888641    4.33629867405617   17.37880020054197
H         0.99157127096163    5.12761953462205   18.70311018092859
H         2.55224973411905    4.35399730267249   19.00785584025193
C         4.08501827235312    5.93536788940109   17.38625154387357
H         3.99277655910664    5.42659359821862   16.42831729947141
H         4.64247456453837    5.30400551783779   18.07569933574829
H         4.64338592120354    6.85724410996306   17.23379628724181
C         4.76409916864368    8.42604945987216   13.92438756413915
C         3.67262939979669    3.45959636142661   13.30909933692319
C         3.22549042131725    4.92446239980212   13.47002919377431
C         4.15362835070917    5.95451457184748   13.66001883798583
H         5.20155209236792    5.72369802017350   13.68526832141893
C         0.44047945265252    8.69850796439270   15.99516957590782
C         4.77431886864681    9.14257563956162   12.56629676198150
H         5.44885948788978    9.99638302536681   12.59381879186599
H         3.77350551144922    9.49148379040982   12.32412865963370
H         5.10366265738454    8.46397988212460   11.78177934279396
C        -0.28019184351780   10.02679368540219   16.30280119737147
C        -1.25105350761594    9.80285431328913   17.46882787897475
H        -1.79385581779072   10.72234391352596   17.67971530368802
H        -0.72432230254986    9.50174145219548   18.37031951644627
H        -1.96967630940126    9.02723461250457   17.21510667199068
C         2.82553672572130    7.08949913303716   19.21217272429502
H         3.43376604025950    6.55337184124139   19.93876311239007
H         1.85487322644993    7.28035948654241   19.66316272598495
H         3.31232552231864    8.03867690305803   19.00053110199761
C        -1.08241430726498    4.88147162602680   15.48768497168700
H        -0.37187598067664    4.21511297274670   16.01835682045336
H        -1.88480862423823    4.24676838953872   15.06328173892760
C         1.87515468722171    6.89880902507882   16.81635036262850
C         1.25411537778968    8.13945325944902   16.99032463233294
H         1.37488350995992    8.66711089219481   17.91864862461549
C         6.17853720259116    7.96524477881568   14.27338527926382
H         6.80502604972841    8.83668047027555   14.45625933476525
H         6.62387992445889    7.40042968140882   13.45853201837586
H         6.17862130724049    7.35097592500704   15.17047097545051
C        -1.70661076043228    5.85297642174343   16.50527942139528
H        -0.90243204073117    6.45014187328002   16.94500941133943
H        -2.36927570863142    6.52833318652131   15.95624075323396
C        -1.06949853774886   10.46664808396904   15.06790530155726
H        -0.39307304112718   10.68248219445740   14.24450258924563
H        -1.64974005757416   11.35974737168328   15.29058787013596
H        -1.74286918996355    9.67359412859123   14.74986086316341
C         1.11202312879914   10.07521157252201   10.50009099837456
H         2.15782606196339    9.86453755950906   10.28388446054311
H         1.01757825669740   11.13068390617508   10.74717187161776
H         0.53428760195428    9.88207556834885    9.59843230622648
C         4.25947877134823    9.38954954616677   15.00568547971659
H         4.85819742301681   10.29815510162702   15.01739491474126
H         4.31332395233761    8.92094993458399   15.98655981837742
H         3.22019562010044    9.64892808423355   14.81334417129002
C         0.74341818211281    7.70363799761446   11.34938272174806
H         1.80547224897363    7.47273452290812   11.11896817143950
H         0.14296249484847    7.46102441133078   10.45077619446390
C        -2.47922429840501    5.12761659600233   17.59965058054995
H        -2.90050641007423    5.83865720471323   18.30721032872689
H        -1.82435650273907    4.44873433979944   18.14242416008528
H        -3.29284783115200    4.54584817791576   17.17190024325372
C         0.61404266739848    9.20666144107996   11.64834596287966
H         1.18343515428968    9.40448493445671   12.56167130078687
H        -0.43832529011124    9.41835295542263   11.85341325897443
C         5.18412363920386    3.24299755882216   13.33725100806258
H         5.67283269287454    3.78042123160877   12.52819823619558
H         5.39522470574247    2.18233258037858   13.21282492980151
H         5.61141749570663    3.56179244884121   14.28505110451241
C         0.74023460398527   11.11147112851052   16.66464127580053
H         1.46123471867194   11.23711178960769   15.86026886133584
H         1.28126097522683   10.86421783251894   17.57359038150154
H         0.22880594851953   12.05960926361556   16.81932588183707
C         3.01687578033629    2.68710654794601   14.46280329880701
H         3.17064876551605    1.61674302365324   14.34025609924790
H         1.94805708961366    2.89588703014564   14.47906902286193
H         3.44586483265933    2.99327099786457   15.41561907691497
C         3.10339534210614    2.96497757547061   11.97289827125520
H         3.58683990109895    3.47715953776836   11.14305715175880
H         2.03565609153007    3.17117255853460   11.93166323445514
H         3.26488550403271    1.89451707454312   11.86319363429838

