66
CSD_code = UMIPAH | q = 1 | S = 0 | Stoichiometry = C29H34NPRh(1+) | MND = 6
Rh        2.19910180899372    3.41688841371108    6.70392902262214
P         4.48858436235603    3.28566083930101    6.71782872762184
N         2.37980377418597    3.62567734439128    4.67713942543903
H         2.55435606212955    2.77640123045228    4.13536403490021
C         0.18593431703837    2.58457920950315    6.50238404019018
H         0.09204300031013    2.21348289132718    5.48023775820922
C         0.04626861410740    3.94029192680811    6.70482614720403
H        -0.13162182604551    4.55849485490604    5.82673672817261
C        -0.36496735913338    4.56783093462429    8.01561665710513
H        -1.01615468327589    3.88014269571239    8.55386767776378
H        -0.94728825819090    5.46699465877610    7.80916572324440
C         0.84566890940372    4.96090552745561    8.88485737495542
H         1.17012024661466    5.96819489296662    8.60897507560279
H         0.55160947347691    4.99996759548467    9.93807076128575
C         2.02564225938336    4.03127344455464    8.74208193221302
H         2.97202034777624    4.48330514992713    9.05042898398635
C         1.96315762282037    2.64655128954034    8.70952174707677
H         2.87203193533698    2.10654015459482    8.97184297395714
C         0.69158823711173    1.84837132519753    8.89299413056298
H         0.01316555130752    2.39915994868775    9.54369310898173
H         0.93265815102941    0.91297755700193    9.39953933227568
C         2.38126312506265    4.69764425094597    3.98728255270900
C         0.01278659873163    1.51549489303273    7.55158503405279
H         0.43074726124885    0.58303332332600    7.16353717368228
H        -1.05695938507863    1.34455335206129    7.70677715337267
C         2.13766398241037    6.00863675481149    4.65001472057230
H         2.11374752370509    5.88420080453078    5.73670557261243
H         1.18816722624091    6.42286935290067    4.31207499304474
H         2.91811102179896    6.71689012863433    4.38005061144374
C         2.62619961338165    4.71529897617521    2.51775695847875
H         3.58326656374760    5.19914793531825    2.32245912936699
H         1.85997014635878    5.29689391454222    2.00913133073469
H         2.65234610578435    3.71226538206312    2.09728994597777
C         5.52032128934411    3.20922145258579    8.22425478998569
C         6.27994542296368    4.27264363181226    8.69784210806854
H         6.31576435756797    5.20512929427968    8.15468184015091
C         7.01837695927151    4.13297876407894    9.86074625695978
H         7.61191187638071    4.96134936902656   10.21668668600484
C         7.00150206456175    2.93972316148319   10.56228135547128
H         7.57802093023804    2.83680028274490   11.46836284433814
C         6.25026322131350    1.87382618292009   10.09249676198568
H         6.24257518111681    0.93743273188010   10.62932695995928
C         5.51378654890437    2.00659232178426    8.93146459079845
H         4.94704377969213    1.16558355954267    8.55310518771898
C         4.99582114953443    1.72803193080381    5.92732074314482
C         6.33804862232132    1.41665010541297    5.72534193709972
H         7.10342098012412    2.11907156028374    6.02603750326076
C         6.68393914640296    0.20585313673977    5.15430674847474
H         7.72392037266820   -0.03357459056195    4.99293130509710
C         5.69988297967310   -0.70402317583756    4.79749960620397
H         5.97599516361957   -1.64839432770371    4.35457977743787
C         4.36478062177932   -0.41045397007055    5.02323656951820
H         3.60191348850316   -1.12931109035754    4.76412898042138
C         4.01386414592613    0.80226725689735    5.58940803214097
H         2.97052629708081    1.03713821253324    5.79961664517746
C         5.24821962932514    4.61479288194725    5.73047590604183
C         5.92870268866873    4.40793467395416    4.53713192691833
H         6.07155530564191    3.40624495418234    4.15830572015343
C         6.42666564766606    5.48916268165349    3.82885100263895
H         6.96161277326932    5.32187194887071    2.90601418033810
C         6.24612412396508    6.77893725262812    4.30000256914441
H         6.64519344934235    7.61641376233936    3.74884523971990
C         5.54278130056636    6.99370671086651    5.47553784932139
H         5.38794802607719    7.99897763104505    5.83805476411375
C         5.03491645381854    5.91795230988433    6.17926405236059
H         4.45622367139247    6.07964843609965    7.08109302064642

