77
CSD_code = UMIPEM | q = 0 | S = 0 | Stoichiometry = C40H32N2P2Pt | MND = 4
Pt        1.34579135617554    6.38314194551778    6.73644268962461
C         2.63115937260239    7.87025128942607    6.53871640408676
C         3.34551391721189    8.79533687271494    6.21263118317009
C         4.15659816048670    9.87624529789618    5.80525205976936
C         3.61645439610263   11.15600632517664    5.63780968650892
H         2.57403787364470   11.34042808731784    5.85396724384655
C         4.44343433073108   12.16987774193612    5.19511892652792
H         4.06210541756923   13.17373442376046    5.05031120378116
C         6.24037876844298   10.79504056757391    5.08143724914384
H         7.29399322110385   10.70243639422528    4.84716433751484
C         5.51379714094635    9.70368930840796    5.51698203322371
H         5.97486668108708    8.73471607668364    5.63449164625415
C         1.84291754996522    6.04123570366955    8.61554552562736
C         1.82980217765366    5.60796841942888    9.74937758411001
C         1.80152080299540    5.05817713515471   11.04819230329836
C         2.81821873073012    4.21788222605198   11.51226510855587
H         3.68469830364116    4.02246087755428   10.89837234624318
C         2.68092023979115    3.64372450456533   12.76126195885337
H         3.44324630339645    2.98198064934773   13.15470480803227
C         0.68090524500662    4.64666157144874   13.11868960060990
H        -0.15292618677587    4.78498941443477   13.79641333754873
C         0.70554879205738    5.27632390242068   11.89005339589869
H        -0.10391931454810    5.91662197196708   11.57250299641698
C        -1.29252194328140    4.66557741196568    5.42457054347791
H        -1.73868631278304    3.68621904649134    5.22464982955437
H        -2.08039706300996    5.34806641484837    5.76125913273132
C        -0.60932178474691    5.23894271453043    4.18627539962316
H        -1.33657539426898    5.50021563726163    3.41067970770036
H         0.09409984528959    4.50354411139393    3.77907237547675
C        -0.84954709575993    3.83350759848646    8.20640875319106
C        -2.15586275255178    4.16455788630884    8.54932026954605
H        -2.75657587930960    4.77245191200563    7.88667310567036
C        -2.68807527504545    3.71899363090474    9.74609607618401
H        -3.70524169405330    3.97252552243134   10.00739993055031
C        -1.91734966218385    2.96338453838942   10.61416846863944
H        -2.33212916152285    2.62931593328587   11.55318997982506
C        -0.60912904780875    2.64616250197308   10.28458092337786
H        -0.00334097047698    2.06969661849915   10.96774431038451
C        -0.07417829868553    3.08232155042859    9.08825327587595
H         0.95047987549554    2.85158381478148    8.82961289739190
C         0.99811060340559    3.17161102116993    6.14173262709649
C         2.30600486488493    3.45827878302845    5.76368184203504
H         2.69050283646252    4.47442616258170    5.89435597009897
C         3.11207252489155    2.46000428408088    5.24679976350660
H         4.12752190741188    2.68264775419097    4.95498545188942
C         2.61399793059815    1.17445428080353    5.11007529191832
H         3.24207104472336    0.39267154971125    4.70936852509244
C         1.31294486877230    0.88402086082071    5.49314745301161
H         0.93211841104140   -0.12174762743341    5.39162047628446
C         0.50248872413647    1.87848253685670    6.00779456858977
H        -0.50952013409291    1.65514555468441    6.31957920240090
C         1.05692424550514    7.41099787539714    3.16207123258916
C         1.19261161664402    6.69977381701707    1.97640353650350
H         0.82655764677333    5.68591265697364    1.89760988610210
C         1.80114144799273    7.29634274389594    0.88516754075069
H         1.89926861253648    6.74555796321109   -0.03911838397806
C         2.28876262909572    8.58913353163425    0.97581360956758
H         2.76752654682081    9.04488774053728    0.12206622760611
C         2.17028525260821    9.29552775755881    2.16336555522471
H         2.56139847939832   10.29906615032749    2.24027219435988
C         1.55799495245137    8.70917787143985    3.25258136949803
H         1.46818959976987    9.24143733787693    4.19016367368373
C        -0.99068065322292    7.90307685712350    5.04503010438510
C        -1.81917235672061    8.39723362092075    4.04271617780998
H        -1.64084597243251    8.11977568800488    3.01200942890127
C        -2.85576967386476    9.25189312348545    4.36830636405082
H        -3.49803310156488    9.63919904298272    3.59088570321359
C        -3.07021875557075    9.61497369689076    5.68941613871324
H        -3.88111776769936   10.28370108062192    5.93733977746627
C        -2.24278062564545    9.13014575584290    6.68933007149799
H        -2.40481002350493    9.42081295627427    7.71658105357559
C        -1.20260250527723    8.27668907818995    6.36852574723271
H        -0.52993341996038    7.90232519864295    7.14683607684140
N         5.72789615389613   12.00556426305094    4.91553511675716
N         1.63760995877202    3.84001184640450   13.55419429830849
P        -0.01674329553614    4.54019373924909    6.76516718906263
P         0.36001676129130    6.73899589516863    4.69283053049028

