59
CSD_code = UMIQOX | q = 0 | S = 0 | Stoichiometry = C29H19F4IrN4O2 | MND = 6
Ir        9.00738731520400   10.86662503529487   10.39684237588141
N         9.71832291458183   10.58064795296909    8.54620030410202
C        10.39695035824632   11.50628901396843    7.87567778628747
H        10.57750690411181   12.43731023753516    8.39580671281818
C        10.86251900630049   11.30827195974885    6.59119760744848
H        11.40846028522231   12.09264482994984    6.09173446251275
C        10.62406679889628   10.09011904994773    5.96109268139259
C         9.92287589734681    9.12358558165632    6.67238729340036
H         9.73433075767259    8.16940770156518    6.21114764755851
C         9.47838743608267    9.38018613945925    7.96476263258125
C         8.75960301425741    8.45104911560980    8.83247643296622
C         8.48810137067170    8.94186552156334   10.13637000703203
C         7.81837964657681    8.11136214981262   11.02896114335478
H         7.59805496045527    8.43783764655845   12.03369498229209
C         7.42718692557115    6.84252915738408   10.64525415289158
C         7.67269637985836    6.34641438663614    9.37739004728702
H         7.35902025035694    5.35738244675147    9.08827771687112
C         8.34113986906022    7.16563700485475    8.49038124295829
C        11.09234282317360    9.81894763633449    4.57041572941432
H        11.82133688058498   10.55906048822676    4.25205134841529
H        10.24661571532766    9.85030453762598    3.88350216918270
H        11.53498536804779    8.82754355150392    4.50322766846918
F         6.77505537556917    6.06028337886420   11.52719108494455
F         8.56223856768552    6.66745239418666    7.25318558853272
N         8.40314774423085   11.14569121804416   12.30266740773887
C         7.19588905775207   11.57238537379839   12.66128295450406
H         6.43296389309043   11.58345398733534   11.89421968864816
C         6.88285046753994   11.98296572383102   13.94070574534288
H         5.88477969117441   12.32377712425021   14.16657471114194
C         7.87202915888948   11.96245434883508   14.91902748919342
C         9.12566978635309   11.49449049152705   14.54859609793700
H         9.90804273164705   11.46425547248097   15.28694905861556
C         9.37696877720111   11.08482952595791   13.24286624915542
C        10.64724614706053   10.56709152236685   12.74522815000480
C        10.68198496073573   10.29780878268414   11.35616807606072
C        11.85424182986758    9.79720609571838   10.80303729741569
H        11.92918010765231    9.57129287383589    9.75041205406136
C        12.96024121218471    9.57209652510015   11.60076282749460
C        12.95200416103702    9.82360425904329   12.96010124052089
H        13.81915007225730    9.64233978669167   13.57303328894858
C        11.78724269469695   10.31861888148748   13.51007958470194
C         7.60657240535291   12.40508981851217   16.31862406482017
H         8.39306596234115   13.07475339304002   16.65990506423240
H         7.59675868187893   11.54185302386806   16.98361873644689
H         6.64841917612682   12.91193125586569   16.39444819228444
F        14.08514744451622    9.08511344155045   11.04105253751902
F        11.79990281554147   10.54613511810359   14.84225388153477
N         7.26144103472136   11.72246147144170    9.46990172993083
C         7.30513553770708   13.05540235062877    9.42276009982495
C         6.27617453704517   13.77562412065831    8.81859099172696
H         6.32203633268525   14.85503657458406    8.79218149855866
N         5.23218376519734   13.18334050176149    8.26915531912523
C         5.20044676226238   11.85879153390698    8.31951702026460
H         4.34356027196075   11.37935679071201    7.86794133303760
C         6.20798424545109   11.12019775906352    8.91957564683739
H         6.17750088434228   10.04044871671451    8.96834341353517
C         8.53128946620378   13.76860504355905   10.04156094301760
O         9.43674086980766   12.99985809495626   10.46001779893260
O         8.51714249262818   14.98658208007869   10.05311098829051

