66
CSD_code = UMIQUD | q = 0 | S = 0 | Stoichiometry = C30H26F4IrN3O2 | MND = 6
Ir        4.39066297507585    4.52432777505685    3.65859388510327
N         5.81819235602445    5.95146732924269    3.46917724004078
C         7.02619801540152    5.94108859466780    4.02599108983137
H         7.38714467202693    4.98761049710405    4.38917029896340
C         7.83077131976225    7.05585012868135    4.12841885246837
H         8.80119458930666    6.98144312724148    4.59377524918859
C         7.36502973157537    8.27309816732076    3.63679464224567
C         6.13013473925353    8.27206577217041    3.00575386899585
H         5.75282585507266    9.19254011340638    2.59576543955798
C         5.37752138540312    7.10424689855166    2.91088914953612
C         4.10930301504364    6.97252640631810    2.20269895210577
C         3.49474526008157    5.70267636670698    2.30419938254867
C         2.30881745036626    5.47234086292094    1.61831719758714
H         1.81106693110364    4.51562331583160    1.65562157202109
C         1.74311773719530    6.47704190339698    0.85653441228506
C         2.31808341331588    7.72936055766367    0.74331819989101
H         1.86690600060940    8.50492657519749    0.14715593350496
C         3.49914568730870    7.95385183507599    1.42087099082525
C         8.15828181692678    9.52736661217230    3.78630212455256
H         7.91728895843306   10.23578897697747    2.99821724261027
H         9.22526614320866    9.31790951267551    3.77077785960866
H         7.92066960004657    9.99348818849473    4.74296043033299
F         0.59377107699965    6.23200957936618    0.19647655194862
F         4.04913562246971    9.18026933864108    1.28069133483569
N         2.89460890967305    3.21186338743545    3.76927164824513
C         1.80295548194731    3.40965396581864    4.50517150433158
H         1.75408969870022    4.34587443723787    5.04425667340084
C         0.77881599367118    2.49007563004840    4.58568346439373
H        -0.08409735095625    2.69682824006164    5.19856647951843
C         0.87228478810277    1.29980567142496    3.86477092527334
C         2.00156365721037    1.11057056373090    3.08150932094222
H         2.09351958120732    0.20930576941608    2.50020369445434
C         3.00226458831373    2.07825760481945    3.03618001347559
C         4.20927493301823    2.03285386824459    2.21791153690742
C         5.00479652271914    3.20718981714578    2.27311427003293
C         6.15619485159561    3.25881465618800    1.49307896082282
H         6.78520580145849    4.13574719372866    1.48973972206117
C         6.51114470006780    2.18745918332738    0.69647071718307
C         5.75936895534461    1.02719402415204    0.64033187535121
H         6.05156331551814    0.19590905593154    0.02087013331538
C         4.61322993194399    0.97365883107386    1.40653771540069
C        -0.21713531766334    0.28128846859295    3.92296282553134
H        -0.42214470611441    0.00397190535472    4.95615867115621
H         0.05027891912700   -0.61046942579200    3.36245600861574
H        -1.13461126592231    0.69524793097486    3.50530712822884
F         7.63447813203854    2.26185880272879   -0.04565658829181
F         3.89751731492436   -0.17276470749611    1.34954931525951
N         5.30230231648435    3.47613941532998    5.46723500349500
H         6.16807278234286    3.98835318959422    5.64386683457114
C         4.43157800559104    3.79152581731943    6.61081428673390
H         3.52585690179016    3.17526043068763    6.52649895319738
C         5.12913418844524    3.47860818550844    7.92879283569799
H         4.46124157319966    3.73330024780846    8.75143292939909
H         6.01805152564051    4.10909948345782    8.02584309444508
C         5.52196781817734    2.00354443767062    7.97108619541332
H         6.07376717688329    1.78586125618254    8.88736239096698
H         4.61935979294015    1.38715076530199    7.97004514553363
C         6.37545278629999    1.65279238968803    6.75242335549745
H         6.59002504386694    0.58307581292476    6.73153715323546
H         7.33038237543124    2.18335751867915    6.81155191429779
C         5.65390548097066    2.05405653620949    5.46393583355015
H         6.28379325463583    1.84851536206262    4.59318047886753
H         4.73280225241352    1.47297309543557    5.35920077560695
C         3.96244248213835    5.29529757064065    6.52425920487059
O         3.77118759369111    5.72847870683140    5.35284795120967
O         3.79603486112544    5.90689646966927    7.56226774721430

