107
CSD_code = UMITAM | q = 0 | S = 0 | Stoichiometry = C36H67BrP2Pd | MND = 4
Pd        4.93414148925472    2.38554419655428    3.48818025940823
H         4.00938265436614    1.21019676840398    3.48594491927311
Br        6.41139634147899    4.29189734087236    3.63808307091656
P         6.54720978777825    0.95152430693016    4.17304372182851
P         3.18491494789423    3.65892936531013    2.82324526954295
C         6.26266647635538   -0.47520155481511    1.79718337733294
H         5.56581206740501    0.35345397107393    1.59446683699973
H         7.23044851445731   -0.20771010617648    1.37100217245977
C         5.77352356650549   -1.76341161651492    1.14339424372976
H         4.78107198190286   -2.01354434179034    1.52617442872288
H         5.69095883299341   -1.62778317786339    0.06287656179925
C         6.74263536656553   -2.90402968584775    1.45008485114734
H         7.71217343593729   -2.68233872461579    0.99712923159773
H         6.37480829012629   -3.83297232175047    1.00939692275520
C         6.92173948018809   -3.08306440500948    2.95646654216496
H         7.64511745199302   -3.87821610752202    3.15070618497911
H         5.96959890509001   -3.38244997168027    3.40193053377294
C         7.39647066932946   -1.78073879749409    3.60186482868660
H         7.51825654289954   -1.91753569153133    4.67920923564820
H         8.36618878716830   -1.51399960175980    3.17855223965475
C         6.37945603897974   -0.68522136952429    3.30813463605231
H         5.39223568086876   -1.03035185214849    3.65048994410064
C         8.76534258407712    1.72248955533951    2.68340103098654
H         7.98261557371089    2.24888991901515    2.12484829900456
H         8.93818638144652    0.75575059473876    2.20432301857608
C        10.05891220407562    2.52859220423999    2.65160644348256
H        10.37834408517070    2.67887595498709    1.61826888893827
H         9.87792016937701    3.51011972527893    3.09341257634552
C        11.14641167603973    1.79652080780931    3.43269321302860
H        11.36953073040325    0.84614745633136    2.93971133956916
H        12.06294848865716    2.38960141480603    3.44097115255390
C        10.69358153347370    1.52779172218481    4.86522238274307
H        10.53989843115897    2.48039491580614    5.37709416189324
H        11.46978776448408    0.97842109101690    5.40347622082274
C         9.38988236774918    0.72751874914787    4.88937284650029
H         9.09830238521599    0.56081323883546    5.92779505754484
H         9.56013186159327   -0.24437574611072    4.42556529697177
C         8.32337718335376    1.51499916262200    4.13279433608492
H         8.26910148055774    2.51129994476819    4.59589600052870
C         5.96955844308156    2.00012476301144    6.59765811390973
H         6.83609503273100    2.65474455428300    6.46476668040494
H         5.11504902043946    2.45260345331144    6.05579637947247
C         5.62798636185920    1.89907860599823    8.07905238370253
H         6.49064888165266    1.50544427815437    8.62299849300630
H         5.41113383997167    2.89359502179377    8.47510079854428
C         4.43318654811241    0.97532083771307    8.28977045285590
H         3.55423883966076    1.39334120653257    7.79329222758848
H         4.20740047050764    0.89062111292123    9.35477694818485
C         4.72867668411745   -0.40118409608708    7.70557789776402
H         3.86943977656353   -1.06060886309571    7.84742584859873
H         5.57908011978934   -0.84350271073897    8.23132882866727
C         5.05238534476367   -0.30005477521971    6.21663487836471
H         5.26500125715476   -1.30005374653340    5.83280017634324
H         4.18240655748273    0.09649251333196    5.68009468427785
C         6.24603837975572    0.62326603113943    5.98049297121663
H         7.13590260022390    0.17991285140098    6.44131756812674
C         1.76472045424648    2.90028515511625    5.08882016355812
H         1.11468038555317    2.26188996134842    4.48580049012222
H         2.67524543567751    2.32910692888296    5.32329149993525
C         1.04307334903215    3.26439454237896    6.38306618134589
H         0.11273116388472    3.78568494607268    6.14254127826167
H         0.78191140356241    2.35222088013902    6.92498382865693
C         1.91320426829230    4.16193264484633    7.25563874662997
H         2.81715756163173    3.62318793990438    7.54794410272908
H         1.37542521791093    4.43242253175874    8.16672951656434
C         2.30563395251276    5.41539265318148    6.48302873407413
H         1.40714314578209    5.98962539238710    6.24091143923675
H         2.95081263312878    6.04732719494800    7.09640704571456
C         3.03253495235553    5.04613645434630    5.19448219051124
H         3.95868863514219    4.50836476784492    5.44161353446928
H         3.31099310658858    5.96016647015963    4.66755550993954
C         2.16986382332944    4.14819327517576    4.30286469682734
H         1.27076324256737    4.68722249389497    3.97881189985152
C         2.48752888098706    6.31750804280645    1.80001144229740
H         1.78529758819815    5.99358241642995    1.03183807512750
H         1.92650985184945    6.48674265741811    2.72090320120149
C         3.13932949709261    7.62742930012657    1.35369868966992
H         3.80769309124072    7.98445058305195    2.14048718624922
H         2.36940192649215    8.38669919987002    1.19659326913233
C         3.93896270600651    7.42613757146447    0.06863162493785
H         3.25893617385670    7.13761819428204   -0.73786743721718
H         4.41558672761882    8.36524472343463   -0.21908679603686
C         4.99775451518685    6.34116658282411    0.24964774247949
H         5.72359491363990    6.65228664329561    1.00338250185175
H         5.53346994882291    6.18379330507384   -0.68894140000541
C         4.33956040737760    5.04104915395999    0.69923259027763
H         5.09989676792942    4.26180039453429    0.84442826920410
H         3.64837362781082    4.70453495574280   -0.07718395054262
C         3.58805543130326    5.28150181608397    2.00849266665815
H         4.31633089299757    5.71961249307688    2.70612794685792
C         0.80276827254306    3.40710381094581    1.15676068870471
H         0.26334103619759    3.96670015818549    1.92419341287014
H         1.12988826718773    4.10716002770384    0.38657271543442
C        -0.12631522141783    2.37664400423843    0.51425213070584
H        -0.48994196596817    1.68758731781191    1.28072247108212
H        -0.99319916389079    2.88066195361623    0.08086922049113
C         0.60923174775882    1.59001440057312   -0.56843559429291
H         0.90353740845732    2.27122486358720   -1.37082416749492
H        -0.05752942607658    0.83928429095148   -0.99768592959685
C         1.85590518464182    0.91572209646408    0.00039114231670
H         1.56184990271479    0.17547261673101    0.74848832446801
H         2.39107043409566    0.39275246162982   -0.79522334592509
C         2.76606798718682    1.95675647362996    0.64410140031121
H         3.09503685147569    2.66067743500217   -0.12149824168408
H         3.65974196607975    1.47602504898903    1.06677634221481
C         2.00812621543666    2.68953707945252    1.75253682227926
H         1.63864445602574    1.91709532280598    2.44411851836458

