24
CSD_code = UMOBEE | q = 0 | S = 0 | Stoichiometry = C3H14Cl2N2O2Pt | MND = 6
Pt        2.42924029526884    5.35286317812228    8.86550014286511
Cl        4.24847755565932    6.39258440517918    7.77530158052659
Cl        0.60886986861699    4.45646643624057   10.03732923817969
O         1.16590618315677    5.85473082559214    7.34577899240733
H         0.26689059083374    5.71682597761413    7.65644713504927
O         3.68423093134361    4.87607585575124   10.40138183253286
H         4.57421899980100    5.13150764016266   10.14435172708064
N         2.19030580362648    7.07886235256231    9.97497423131171
H         2.39552892243541    6.77081419743357   10.93307342888132
H         2.95076103718882    7.69414882289718    9.66874246114787
C         0.91041003656166    7.78515130231219    9.90405911414370
H         0.70514115063633    8.04349548801714    8.86538428876148
H         0.93216653611884    8.69793814153494   10.50455209327016
H         0.11802836808937    7.13335863816798   10.27043317110595
N         2.78125082045842    3.68122706161241    7.69473527287061
H         2.83213645082287    4.12917009888733    6.77156741858874
C         4.06606674075298    3.04252617292833    7.98748059025869
H         4.05925340437652    2.68715078345924    9.01842549378865
H         4.87331155625619    3.76398687117395    7.86704574889054
H         4.23724564260908    2.19786209702437    7.31410406206153
C         1.70114657845311    2.69408859264817    7.64979343310326
H         1.92393156171460    1.91916609238500    6.91032198895664
H         0.76684995466930    3.18568738778192    7.38195232524391
H         1.58843101056083    2.23181158050741    8.62996422896766

