55
CSD_code = UMOBED | q = 0 | S = 0 | Stoichiometry = C24H20CdF2N4O4 | MND = 6
Cd        2.51497937325009    4.99816894015022    2.69508608700968
F        -1.54861369406188   11.94816527769756    1.82671126088568
F         9.50009284874061    6.21357836706180    6.60640432863314
N         0.67047689100651    3.82016792797626    3.15595493401772
N         0.99048681943315    4.15536797737368    5.41183093363734
H         1.95741375156979    4.36312846166561    5.18690181713302
H         0.62898311137977    4.53129173940358    6.27185841552612
N         3.43718135954284    3.57007659857730    1.23945562067422
N         3.82685460392831    5.29204684812748   -0.23941288053621
H         3.11847898784511    5.81276177739333    0.26634185322052
H         4.50196694520100    5.82394410692185   -0.76174612470194
O         1.47853474488972    6.71883772353859    3.59062060090734
O         1.49424263435425    6.45491383929299    1.40954192585001
O         3.87536353179780    4.51159736130164    4.34858423229924
O         4.49519279876086    5.94284903492168    2.80127460369930
C         1.19394135118276    7.11342680374772    2.43833426218437
C         0.45768954015767    8.40537565765168    2.27314642183140
C         0.20927798742453    9.20808994257912    3.38148935046057
H         0.55747295298263    8.87847325008855    4.34825969962759
C        -0.46561485541603   10.40529395628784    3.23805975129151
H        -0.66713080027969   11.04656864195315    4.08178258103971
C        -0.88678713107314   10.78036491618378    1.97404451063683
C        -0.65316237503699    9.99909195878366    0.85576956058979
H        -0.99914049477756   10.33054584075839   -0.11076850758708
C         0.02548205337222    8.80567583167292    1.01324231499781
H         0.22903813311642    8.16771996801684    0.16695628381408
C         4.70293150454293    5.32996661733329    3.87188954219635
C         5.98609758294180    5.56358574465460    4.60498652959861
C         6.89186995001944    6.50697541773274    4.13148759940808
H         6.64555030318280    7.05763965169202    3.23671529239640
C         8.07882761875969    6.73216459937014    4.80197858205027
H         8.79583481669466    7.45994826697951    4.45560594382075
C         8.34133241811756    5.99992917585928    5.94682277298490
C         7.45694597967602    5.05558606697331    6.43832711710739
H         7.70209397268862    4.50812140086419    7.33494699475837
C         6.27303527093435    4.84149917671013    5.75850466956739
H         5.55645358116628    4.11439660008302    6.10841472794098
C         0.13993942171861    3.98524440143337    4.37774264288695
C        -1.25250894566782    3.90244574417703    4.58491510489337
H        -1.64966409762510    4.05396974084186    5.57687892472787
C        -2.07450464084513    3.63753779656497    3.51869961453968
H        -3.14432989189551    3.57721501656340    3.65403627851957
C        -1.51027062776605    3.44676704134790    2.25714565935735
H        -2.12613433202244    3.23254218226450    1.39939991732726
C        -0.14331612592290    3.55526779547136    2.13195855035263
H         0.34329982010134    3.42714119800697    1.17207856031762
C         4.20492676577205    4.10365451018865    0.27631350032876
C         5.32065805490218    3.40898152092662   -0.23492356370134
H         5.92682664745336    3.87111135061986   -0.99886005687704
C         5.61609380047372    2.16172603695332    0.25462057627456
H         6.46991805008896    1.61544028695007   -0.11822184460864
C         4.79863955375639    1.60793292024660    1.24024209971329
H         4.99895470068167    0.62889064124242    1.64307616679930
C         3.73495456580506    2.35279110722628    1.69833824367238
H         3.07664321298407    1.97300524160743    2.47105601649019

