37
CSD_code = UMODUV | q = 0 | S = 0 | Stoichiometry = C14H18Cl2N2Pd | MND = 4
Pd       -0.00030617063294    0.00007474910559   -0.00008104601547
Cl       -1.72856690559251   -1.46398800861295    0.32410384323098
N        -0.07766438633956    0.50678990809463    1.86858506291150
C        -0.61425906113213    1.67196754948225    2.22403000961484
H        -0.98608458370826    2.29579664023507    1.41073525711865
C        -0.70045312587323    2.09810808309846    3.54053476078627
C        -0.19530909742544    1.25717883779799    4.54173517837537
C         0.36191464017419    0.04537285932016    4.15026807681855
H         0.76229804330808   -0.63224924648363    4.88858511470056
C         0.40389328586335   -0.29772899975902    2.81228938161927
H         0.82675715485273   -1.24359846243877    2.47737951427986
C        -1.31415476188885    3.41936899220697    3.87197410524549
H        -1.64179499930386    3.92907225471188    2.97052914711381
H        -0.59429418518303    4.05280167507647    4.38852290949501
H        -2.17167716955510    3.28620657571672    4.53031990974595
C        -0.25382662331509    1.65111300692562    5.98023522540872
H         0.18019666050783    0.88011408865737    6.61065267435664
H        -1.28617490197563    1.81485312043356    6.28686500899313
H         0.28865010145929    2.58203542182031    6.14066643267171
Cl        1.72835021701303    1.46419666612204   -0.32403289912865
N         0.07737400374578   -0.50677479518543   -1.86868362941026
C         0.61407034889757   -1.67193122115131   -2.22401634012662
H         0.98584792835338   -2.29568666304446   -1.41064138806596
C         0.70044383871978   -2.09809478184623   -3.54049783302017
C         0.19539299690537   -1.25720574600029   -4.54178106424343
C        -0.36193622184324   -0.04541606451170   -4.15042128470681
H        -0.76227024041872    0.63216434228297   -4.88880517324903
C        -0.40409628905180    0.29770831363299   -2.81245720958500
H        -0.82699115899700    1.24360183132914   -2.47764603135874
C         0.25408098750737   -1.65120450576025   -5.98025261845434
H        -0.17989689302823   -0.88025278935138   -6.61075676791249
H         1.28646907404311   -1.81492466736240   -6.28675814717811
H        -0.28834423374079   -2.58215534248595   -6.14070314123161
C         1.31424437912150   -3.41934334822948   -3.87179241480148
H         1.64178340383633   -3.92895900904947   -2.97026067831372
H         0.59448505428228   -4.05284359517881   -4.38839520686968
H         2.17184889041311   -3.28616766959911   -4.53002873881393

