36
CSD_code = UMOFEH | q = 1 | S = 0 | Stoichiometry = C7H22ClN4NiO(1+) | MND = 6
Ni        5.66261611990452    2.02612176582216   15.00842663051929
Cl        5.40637608148503    0.02818135867602   14.92230955123284
O         6.02217830512953    4.02138454612258   15.13116061366278
H         5.94636376527517    4.46431426405772   14.27986889288698
H         5.44292374740822    4.48185158928342   15.74611016476605
N         5.83378188906322    1.85028980717778   17.22616824916545
H         6.44601165231944    1.06928218183851   17.45189081545028
H         6.25447190480465    2.69137086159506   17.61821978440737
C         4.50917363696696    1.62439892555138   17.81619926180033
H         4.50532317790943    1.80984942784753   18.89615854862186
H         4.23446231033118    0.58221306010447   17.63860029087269
N         3.47040936056032    2.28623537988574   15.69969660793659
H         3.15802639296214    1.32215836498529   15.55963347240262
C         3.47516985388869    2.53171308262491   17.14302451131686
H         2.48890393218094    2.34467704254184   17.58835841389138
H         3.72820710813255    3.58231415321257   17.32240255451753
N         4.72726798011502    2.24480521444843   12.88817976372736
H         4.41038853160547    1.27912502894543   12.77165863596689
C         2.53342088617428    3.15623525027076   14.98631203323464
H         2.87972965888407    4.19192904435504   15.06446483885854
H         1.54170082480143    3.10645718675726   15.46015408943894
N         7.42050930150855    1.80248741048781   13.68278537476098
H         7.98543705957952    2.64946233888866   13.72779422570622
H         7.99702481910156    1.03085461021994   14.01151140520971
C         2.38080202363980    2.77168895128565   13.51537320353995
H         2.17479126966317    1.70202808257519   13.44295073083932
H         1.51362384081845    3.30266265568151   13.12116089059112
C         3.57858181047160    3.11423293663870   12.63074798009347
H         3.26769052802330    3.02723862522139   11.57887344359014
H         3.87546348940976    4.15508961805654   12.79662943074631
C         5.81984705731903    2.45710622112823   11.93758837652314
H         6.13070770988299    3.50644515336228   11.98411474887190
H         5.50748132331666    2.24585890263598   10.90609613355726
C         6.99860976805049    1.54906207975866   12.30038936894083
H         6.67823165774774    0.50704684177110   12.23124273914245
H         7.81509122156502    1.71402803618451   11.58844422320997

