101
CSD_code = UMOQOD | q = 0 | S = 0 | Stoichiometry = C60H36N4Ni | MND = 4
Ni       -0.00004249014914    0.00001053138305   -0.00014910671056
N        -1.07482983333489   -1.64129812226000    0.19155416910835
N        -1.57258273467100    1.07084144700388    0.51595819047787
C        -2.38767822952278   -1.74787938395048    0.56087314827137
C        -2.78694303843712   -3.12362236744805    0.62370997954863
H        -3.76282466162661   -3.46428285135158    0.90842633250796
C        -1.70762129285588   -3.85736792222545    0.27598791982827
H        -1.61218853073109   -4.92336519398668    0.20663896183964
C        -0.65076927410127   -2.92825608458437    0.00900857526557
C         0.61996996803553   -3.33400082475093   -0.36832466106225
C        -1.64643514591950    2.43310949728237    0.60631015024708
C        -2.96444240739944    2.84973199588055    0.98149386489945
H        -3.26577145541380    3.87085919935187    1.11089501607964
C        -3.69963530243187    1.72503724753355    1.11849701482084
H        -4.73621127493794    1.63173229169276    1.37588969502208
C        -2.82541499334914    0.62420494359131    0.83583770388712
C        -3.24414132628676   -0.69925961309630    0.86894850745299
C         0.89508511986668   -4.78404807311874   -0.50858393378736
C         0.63788571877185   -5.42471889671743   -1.72703916845726
C         0.11939005523713   -4.72750900001907   -2.84910739176006
H        -0.07917115050894   -3.67020526873288   -2.75228748463109
C        -0.12300095812933   -5.37339541476799   -4.02220638107376
H        -0.51815677343206   -4.83352823835442   -4.87026293820294
C         0.13811531897688   -6.75417550865841   -4.14819891587353
H        -0.06272551454762   -7.24474876491362   -5.08947047723313
C         0.63780416126964   -7.45715853598094   -3.09602680442771
H         0.84207331130690   -8.51488660781781   -3.18392049983379
C         0.90504277202601   -6.82336342832404   -1.85527884756042
C         1.41791370230599   -7.52411084478224   -0.76787930949551
H         1.61994484980050   -8.58166186600754   -0.86809514513160
C         1.67673473057565   -6.89402393725176    0.44567343744396
C         2.20001228660433   -7.59982185553477    1.55946865317575
H         2.39945387126742   -8.65615588592712    1.44723426047366
C         2.44473065961676   -6.96589042968854    2.73813372726739
H         2.84357563074952   -7.51082230106113    3.58129775392258
C         2.17869519045053   -5.58702620451824    2.87347379673783
H         2.37824910233032   -5.10297315629050    3.81823809761179
C         1.67648909820344   -4.87337634525513    1.82919618825504
H         1.47160975865435   -3.81804566143440    1.93327103177913
C         1.41016222503910   -5.49617426494596    0.58215355224506
C        -4.64140048055591   -1.00078374529418    1.24273740173216
C        -5.09974646516846   -0.73551256900894    2.52918250400087
H        -4.42142343276484   -0.31257236578743    3.25609923384541
C        -6.40716486352108   -1.02169534724349    2.87802672389922
H        -6.75212622155807   -0.81657445170751    3.88101024529987
C        -7.27249638073914   -1.56927273305676    1.94564368987437
H        -8.29383802756023   -1.78996544834945    2.21852403907257
C        -6.82387123993885   -1.83300068877512    0.66221586309331
H        -7.49597065107726   -2.25795943197290   -0.06902770309348
C        -5.51524413405587   -1.55395167847602    0.31222657972957
H        -5.16395382312040   -1.75466332757837   -0.68964126818001
N         1.07482944859893    1.64129787058816   -0.19155298388528
N         1.57258106679972   -1.07084046889288   -0.51596603881318
C         2.38768556380354    1.74787711156820   -0.56084518572607
C         2.78694649773756    3.12362052359643   -0.62369593790378
H         3.76282607772088    3.46428085061619   -0.90842016865202
C         1.70762584205962    3.85736627346648   -0.27597113073418
H         1.61219193984995    4.92336397012258   -0.20662688410856
C         0.65077679825992    2.92825460569405   -0.00898043275900
C        -0.61996617962316    3.33400041177120    0.36833885743359
C         1.64643966868507   -2.43311001861032   -0.60629457044984
C         2.96444114358457   -2.84973206666866   -0.98149998981840
H         3.26576754041903   -3.87085876734024   -1.11091007340632
C         3.69963412158322   -1.72503765347852   -1.11850489018801
H         4.73620735334933   -1.63173320068130   -1.37590794106605
C         2.82541988149802   -0.62420606319859   -0.83582303375485
C         3.24414562520319    0.69925859792094   -0.86893329330907
C        -0.89508458486645    4.78404791748425    0.50858654912939
C        -0.63788609587200    5.42472138927084    1.72703961154378
C        -0.11939064678343    4.72751259096247    2.84910851092990
H         0.07917045557069    3.67020870121979    2.75228985388948
C         0.12300005651449    5.37340049258742    4.02220644623730
H         0.51815598366586    4.83353462034445    4.87026383380923
C        -0.13811679337032    6.75418069979232    4.14819629812249
H         0.06272378894928    7.24475528268301    5.08946708841659
C        -0.63780574505431    7.45716228892224    3.09602324959334
H        -0.84207538468842    8.51489031522460    3.18391559427615
C        -0.90504389868884    6.82336581737540    1.85527635931564
C        -1.41791484956726    7.52411115715046    0.76787556585783
H        -1.61994669576454    8.58166237516955    0.86808938225179
C        -1.67673518824334    6.89402191740082   -0.44567613262101
C        -2.20001274042641    7.59981841942430   -1.55947287935066
H        -2.39945514846296    8.65615270845741   -1.44724061211620
C        -2.44473053365896    6.96588486432518   -2.73813693440666
H        -2.84357566460716    7.51081519049126   -3.58130211031870
C        -2.17869413178796    5.58702060551123   -2.87347417708670
H        -2.37824750647480    5.10296601286993   -3.81823779676532
C        -1.67648777339531    4.87337257852006   -1.82919544217342
H        -1.47160768638145    3.81804218002251   -1.93326891444378
C        -1.41016193733339    5.49617164912126   -0.58215325635390
C         4.64140236506960    1.00078430350086   -1.24272979017719
C         5.09974758607310    0.73551471718895   -2.52917605355038
H         4.42142389694548    0.31257626911077   -3.25609353977637
C         6.40716672366626    1.02169591697831   -2.87802008428703
H         6.75212851921845    0.81657547718277   -3.88100418045835
C         7.27249832006510    1.56927219678685   -1.94563659070635
H         8.29384020901838    1.78996440654477   -2.21851632202276
C         6.82387310667220    1.83299960010364   -0.66220897250664
H         7.49597237837342    2.25795738396284    0.06903494775781
C         5.51524604975029    1.55395186921033   -0.31221984463108
H         5.16395575310157    1.75466359590766    0.68964806755935

