81
CSD_code = UMOWUO | q = 0 | S = 0 | Stoichiometry = C36H41BOSiZr | MND = 13
Zr       -1.44179339072621    2.04090724189294    7.58790437242157
C        -3.32018860132170    0.36574952414462    7.05304826192298
H        -3.76728721119268    0.21969257990396    6.07744159592245
C        -2.24487753953151   -0.37051585536984    7.58409350266086
H        -1.74706725639991   -1.20237960990882    7.09952332138070
C        -2.07986324312052    0.01384170051875    8.93835833771294
H        -1.44644231220668   -0.48467590567279    9.66404757684643
C        -3.07093323290588    0.97294608768125    9.24034539764141
H        -3.27972970193655    1.38337092718625   10.21978270770274
C        -3.82407079561845    1.20278772392963    8.07367266639238
H        -4.71868131305791    1.80880184784167    8.01453707533983
C         0.42927350872314    0.73193659423098    6.42196580774844
H         0.28777940005499   -0.12766387959288    5.77719390845937
C         0.69372697004272    0.69426719695755    7.81206306672601
H         0.80821943200427   -0.20414633914498    8.40835193742303
C         1.01993108773302    2.00238182966031    8.22868829227091
H         1.37574210802054    2.29130460566699    9.20999818528069
C         0.94229922933636    2.84960337071855    7.10203710248722
H         1.26704239237302    3.88191462574224    7.07060451738646
C         0.59776590401601    2.05940780683063    5.98532935619148
H         0.58770868567810    2.39116364079511    4.95524836105719
B        -2.48914717926666    3.41502716632003    5.86959042251840
C        -1.68368377432185    4.58349580796146    5.07254019173981
H        -0.62111190520499    4.64045117916716    5.36507069064702
C        -2.28901575536598    5.95226925673870    5.43187276666647
H        -2.09348195488720    6.12546129176719    6.49468772326692
H        -1.78344660207672    6.74676374427991    4.87289765755283
C        -3.79603750958799    6.08297174050164    5.19523524450094
H        -3.98847831022263    6.27236593430922    4.14103226298690
H        -4.15033819644641    6.96806795491120    5.73330465774128
C        -4.61680987438318    4.87736060321868    5.66053873045354
H        -5.62558969057802    4.96384720572974    5.24330891122868
H        -4.71153855768440    4.92532893348945    6.75005605597261
C        -4.01560309003083    3.50564135561209    5.31278901312986
H        -4.68109622199833    2.75849798971128    5.77199698343942
C        -4.02239786827299    3.19944711782269    3.80492704266074
H        -5.03711813080209    3.29432438446047    3.40497272733670
H        -3.72337345627682    2.15289796602381    3.68508216071702
C        -3.08845865612621    4.06940085951566    2.95903901952225
H        -2.96806291742604    3.59340860379152    1.98028583441231
H        -3.55818037846784    5.03226723376183    2.77089106680666
C        -1.69796312240141    4.28520127233154    3.56336608630741
H        -1.20335267113953    5.09156905771010    3.01193161534894
H        -1.10997850069860    3.37515555405724    3.40324263130284
O        -1.32572222306910    3.15657082802250    9.15234846832693
Si       -1.50135528051234    4.09474811104420   10.43126989608577
C        -0.95912175009481    5.85574474220845    9.97316216817435
C        -0.42890647131907    6.08019193749618    8.70678455377782
H        -0.33727314014337    5.23287240010828    8.03383078331913
C        -0.04160512081193    7.34542901704114    8.30402919409409
H         0.36507722063691    7.50041820340300    7.31466891770730
C        -0.18277965845190    8.41638244343842    9.17069406930780
H         0.11857579024129    9.40724981694693    8.86284479829702
C        -0.72119408947443    8.21403060962285   10.43056448797788
H        -0.84296899368096    9.04981570802062   11.10504374487043
C        -1.10831440198114    6.94511765136760   10.82334471107000
H        -1.54520759389895    6.79874692205493   11.80072499438002
C        -0.48479186900136    3.33724916043851   11.84643217267831
C        -0.09844745785255    4.04682255538189   12.97678954585396
H        -0.35915064232068    5.09141372482413   13.06060715459554
C         0.62180324334068    3.43935075094979   13.99054794455161
H         0.91298793381460    4.00770219662324   14.86259049464377
C         0.97157782744212    2.10356018028430   13.88873610995288
H         1.53404384886074    1.62803621736414   14.67927362052294
C         0.59940983282293    1.38097939581750   12.76709563223180
H         0.87332337331687    0.33850869148607   12.68239524640044
C        -0.12238344818763    1.99582158844217   11.76035553466446
H        -0.41726309087287    1.43902744404970   10.87636530101562
C        -3.33901408604556    4.16986051426203   10.92629674931877
C        -3.77373034597169    4.19567482422374   12.24615097351474
H        -3.04387961400056    4.16014667305748   13.04265360104495
C        -5.12234048333557    4.25705600277486   12.55261808527193
H        -5.44171367934608    4.27564877551030   13.58506281638697
C        -6.06325578398401    4.29309893348937   11.53776657017466
H        -7.11618067466553    4.33996152605996   11.77554816694323
C        -5.64879498969064    4.26819495768085   10.21599563120676
H        -6.37996231396557    4.29811146812031    9.42027816331616
C        -4.29967970147392    4.20853565056938    9.91886441189161
H        -3.96797075263365    4.19047109659747    8.88592040613804
H        -2.44975694753335    3.64614669823128    7.12229616365559
H        -2.00182426233563    2.25848465559181    5.64085386937937

