30
CSD_code = UMOYEA | q = 0 | S = 0 | Stoichiometry = C15H9MnO5 | MND = 8
Mn        1.08665618771979    1.01887627694304    2.66387133795917
C         2.20403865835828    2.84174872578763    4.18638314741083
C         3.01753871704908    2.21444917222995    3.13205077455777
H         4.02976627349845    1.93344395495297    3.40707738068551
C         2.68317523039026    2.33117538744326    1.78966213103550
H         3.42150260733513    2.09426359846619    1.02610297510768
C         1.39607518119332    2.78137656533475    1.38075410236505
C         0.47520720762906    3.13327230490380    2.40648787696997
H        -0.48763052668496    3.55432101134552    2.12349915594269
C         0.80840454100629    3.01404070175459    3.75197223130009
H         0.11246845807689    3.37297168215608    4.50483435865476
C         1.10740549485998    3.09397411623654   -0.03106570228891
C         2.06203527298779    3.74089641364005   -0.81552872215425
H         3.01642910190831    4.01211595132176   -0.38746898045547
C         1.79408095932775    4.06803090123048   -2.12724969295152
H         2.52561299860414    4.57498392422406   -2.73557426728130
C         0.56115158888521    3.74718105429283   -2.69021875679340
C        -0.39390329560155    3.09542435356306   -1.91613080484001
H        -1.35028566501223    2.83351689632548   -2.34844586489728
C        -0.12265466858555    2.77594552394719   -0.60128645908691
H        -0.86450632884728    2.24608989586834   -0.01897330903549
O         2.62332623493043    3.14111631073314    5.29037923312257
O         0.33978834295225    4.08481515857436   -3.98298053129072
H        -0.54320051181171    3.80631739795420   -4.25569973425008
C         1.24557690021715    0.11200738098924    4.21345835862616
O         1.36579505838324   -0.42495070905253    5.21286435197759
C         1.67034113467897   -0.30422453719478    1.60721969766984
O         2.06438482677612   -1.12237600020100    0.90707981920247
C        -0.60356077931993    0.51789701069925    2.36436260334465
O        -1.69751920090439    0.23279957552970    2.16386328939310

