55
CSD_code = UMUBAF | q = 1 | S = 0 | Stoichiometry = C24H25NNiOPS2(1+) | MND = 4
Ni        8.94349652097571    7.44206705391564    1.62874650611015
S         6.80318036461487    6.64280854668593    1.62547505074261
P        11.01430706339891    7.95325447405734    1.87317669015045
C        12.65643442335330    6.09194803077361    5.05833235975493
H        12.70734620508995    5.07877626306552    5.42649039657299
C        12.51197479631592    8.71353773396665    4.12944003227389
H        12.44364120965479    9.73110915286154    3.77324431163296
C        13.24738555540381    7.12344835552141    5.77403350504967
H        13.75971722946714    6.90965604202386    6.69928385711888
C        11.93563816360760    7.67749837848335    3.40316846414211
C        11.99432784023903    6.36672312436298    3.87818884758263
H        11.51606264703624    5.57639062653123    3.31249433297652
C        13.17315506096228    8.42744314955030    5.31175892750773
H        13.62687348559785    9.22726601426105    5.87664111180693
C        14.02738304179161    6.15041581221043   -0.22992745182283
H        15.02487188771554    5.79073479495437   -0.03033640978966
C        11.99397439768620    7.17439063169760    0.55748846560918
C        12.21916591524721    6.52882481250343   -1.75645325849385
H        11.80835075358864    6.45793435153945   -2.75277627589496
C        13.49383683931944    6.05552445947906   -1.50521894345613
H        14.07264668087895    5.61963873098896   -2.30419372092350
C        13.28206646148169    6.71465583754947    0.79372174863394
H        13.70427980028808    6.79815295396454    1.78465082744455
C        11.44220348893166    7.07654374261701   -0.73272099496396
C        11.07679125758050    9.72514990948030    1.49610673683602
C         9.87186507928828   10.41550913546312    1.61079836891066
H         8.97731338954003    9.86043585157780    1.91944475411476
C         9.82382669864194   11.77139880819452    1.34908071128601
H         8.89450547110020   12.31251787124524    1.43993664949828
C        12.23461174966158   10.38953871269407    1.10811691433101
H        13.16425283548407    9.84615021938739    1.01331010979239
S         8.60397767121395    7.07834920003012    3.77023227843449
N         9.12171281808999    7.74836176262722   -0.29820300443765
O         6.29304725938280    5.97929910292248    4.15862764747907
C        10.11618131439286    7.55762981412829   -1.07539696126094
H         9.98613766380029    7.76303771612570   -2.14165629888652
C         7.08983326992846    6.49139188049843    3.27493073283140
C        12.17910814482202   11.74777917782161    0.84742032310764
H        13.07344065727451   12.27289143267919    0.54891851136274
C         7.91311284022659    8.29703169489511   -0.87888962309127
H         7.51155745039420    9.07191742224606   -0.22025560557163
H         7.15885211132918    7.51043468628612   -0.96439665713175
H         8.09970545637369    8.72051815808889   -1.86932772047300
C        10.98100820990379   12.43539415322386    0.96912451806173
H        10.94864348371982   13.49436461210616    0.76499932733114
C         4.99275187260949    5.47554749088204    3.77446959516891
H         5.07584608991767    5.06150631693469    2.76015146437413
C         4.64377789761336    4.38137904963187    4.76940941793194
H         5.39624452928643    3.59701856904937    4.75333945636746
H         3.68107280302838    3.95055377259394    4.51236319423641
H         4.59222349874188    4.79540627214015    5.77276836597718
C         3.98888064934630    6.62082998653490    3.79028505454544
H         4.27426975475310    7.39648867871691    3.08260785859890
H         3.93489551753940    7.05377191583644    4.78612179618251
H         3.00833272234894    6.24535355239120    3.51465370435098

