139
CSD_code = UMUDAJ | q = 0 | S = 0 | Stoichiometry = C53H81N2P2Rh | MND = 4
Rh       12.49502408778972    2.61381527340199    8.45666698994940
P        11.90673285855463    1.32161624090042   10.19268757544013
P        12.48444083642603    4.07574972818617    6.76840826188323
N        10.84393664455209    3.67325380196786    8.99295980242839
N        14.11803833767425    1.26171641019523    7.82147931790023
H        14.89704152335706    1.72545833305482    7.36257895023331
H        13.71054054047907    0.60112971055066    7.16364586067978
H        14.47437771228683    0.74190229857180    8.61932852334547
C        10.43928771092072    2.10176822156081   10.75498367931504
H         9.90350301705490    1.80444692577761   11.64306185847076
C        11.23407183237317    5.13892756946217    7.14645544960374
H        10.97205722611920    6.02339286774276    6.58617353976359
C        10.09549699328052    3.25358461184459   10.06707876400905
C         8.94952634163081    4.01524461470034   10.45037492591468
H         8.37624459874507    3.66872238975039   11.29662408449127
C         8.59637615112103    5.13928126035177    9.76785134036826
H         7.73255223948298    5.71893617379901   10.06176847573004
C         9.36419787387737    5.53697957666422    8.67007678523799
H         9.10965110561292    6.41655587153430    8.10054176910658
C        10.46657269850726    4.77583794571774    8.30556106116317
C        13.01730067774526    0.91137471060302   11.60285162150410
C        12.84070830642167   -0.42303116283195   11.98301014153195
C        13.54538351125658   -0.97278618431308   13.03906670157913
H        13.35955666257390   -1.99792256891030   13.31106929683871
C        14.47494017874497   -0.21378079236118   13.72765050197598
C        14.65021709797066    1.10760714517792   13.33031335361930
H        15.37726833341480    1.68801402345519   13.86893702147790
C        13.94545079846013    1.70934643139557   12.29554018169831
C        11.81364410715626   -1.23449958284335   11.22173347925387
C        11.54111129084666   -0.47754244668284    9.92062173464330
H        10.51285923395252   -0.59352857392943    9.57373954700636
H        12.20245330170642   -0.84954723504478    9.13102793880005
C        10.53956493940176   -1.32496655692678   12.06707599336894
H         9.78325405076997   -1.91514733150748   11.55279052729011
H        10.14272114323232   -0.33013621386857   12.24782075911912
H        10.75136082444652   -1.79108126028860   13.02749714720629
C        12.31389246243759   -2.64786183882257   10.90323157830778
H        11.62811478713552   -3.13400853916746   10.21144374143666
H        12.37171162096420   -3.25965405863918   11.80009217393565
H        13.30190220544866   -2.61286853648058   10.44666167962730
C        15.29887249554829   -0.75883785006942   14.88425575870549
C        16.79042180399339   -0.65102771659891   14.53640481482112
H        17.39489273850909   -1.05397501925085   15.34649495320025
H        17.08670579732842    0.38144276917532   14.37331310077871
H        17.00665585244313   -1.21493873836839   13.63098358666046
C        14.98763012842295   -2.22735283290778   15.18664443932311
H        15.20301216912162   -2.85825830677330   14.32702598652969
H        13.94586820609631   -2.35539694918564   15.47161987170903
H        15.60596904171737   -2.56670723221162   16.01551267891084
C        14.99855841649607    0.06196938198362   16.14609552310310
H        13.93790463730144    0.01024001868340   16.38316586659707
H        15.26601024261794    1.10649286620538   16.01278561267910
H        15.56150229139948   -0.32854319556088   16.99153861212987
C        14.20456345658724    3.18214307761957   11.97633420673366
C        15.26405632065337    3.81707668569508   12.89060339772432
H        15.37577044366500    4.86568691420448   12.62069692465127
H        16.23508687756836    3.33961177096004   12.77331798004055
H        14.96420807450358    3.77928993324931   13.93527060846757
C        12.90952787869240    3.97516143773125   12.16721358246969
H        13.08285966157751    5.03158621686300   11.97230970694697
H        12.54226055896750    3.86500074745529   13.18554590380365
H        12.14187911500636    3.62265489709366   11.48446544980670
C        14.70190625846776    3.35030282830620   10.53540842681838
H        13.87695488696284    3.15669084511599    9.80831641570807
H        15.53362307805584    2.67488358711795   10.33772655499785
H        15.04452109165530    4.37210233028693   10.38381320253657
C        13.26414867332682    4.72035436408278    5.24871040659198
C        12.78446114131999    4.35292202580715    3.98807461834789
C        13.36662587381505    4.87377275726712    2.83879459410774
C        14.41388575401786    5.77375844933586    2.90305255133015
H        14.85287535450099    6.15908925524276    1.99643193845248
C        14.91011477663269    6.12264212427498    4.14562044005751
C        14.36820791745838    5.57611953683675    5.30549260682680
C        11.66875812481583    3.38727610799670    3.63695005015032
C        11.80992106674949    3.23046862436761    2.10230816117220
H        12.25874600045917    2.26667524245933    1.86757539407243
H        10.83499625039029    3.25559688676774    1.62128648044781
C        12.71168879102368    4.36615436102661    1.57925691166291
C        16.05674036063703    7.06386057321668    4.42647085972937
C        16.29569252081052    6.87394052349518    5.94450897904771
H        16.28703319191323    7.83486646758357    6.45640263057251
H        17.27520409527468    6.43136628369309    6.11898133825527
C        15.19334535899131    5.94943807599781    6.51678203497807
C        11.80196875250674    2.03151863150001    4.35354833987199
H        11.14739895943106    1.31577366892442    3.85239009776908
H        11.44971591414975    2.13612627285228    5.38703010340222
C        13.21863705069850    1.47186574868256    4.38255608329010
H        13.64269873231776    1.40667361078279    3.38437180855658
H        13.21174933044823    0.47000900654915    4.80951025436062
H        13.86754348309050    2.10726433703275    4.98159991275714
C        10.31082337887556    4.02685858279912    3.99916843566002
H        10.32314647250675    4.27965101971692    5.06079595317484
H        10.20937744000370    4.95922393288087    3.43975064867013
C         9.08867941146911    3.15293780106906    3.73842763935370
H         9.05689267256955    2.79306967315221    2.71239582921577
H         8.18609918065953    3.73287887690657    3.91897916047568
H         9.07221382090754    2.29583585826771    4.40571419595547
C        13.73791267527147    3.88606495297572    0.53695296877567
H        14.20809429230825    4.76408945370370    0.08794152157243
H        13.20816608441544    3.35398940137569   -0.25536503198068
C        14.83541139994585    2.98121967025015    1.08643512644491
H        15.34335388863203    3.45126636046663    1.92523254033234
H        15.56868418201593    2.77754884287700    0.30867046484798
H        14.43267457848843    2.02782592570040    1.41887200484239
C        11.88609284460837    5.52981057329301    0.98484114729441
H        11.14576817910652    5.83720179342178    1.72598899101364
H        12.55505016631743    6.37988380203918    0.82780136728303
C        11.17405969009856    5.22084571994109   -0.32745382375467
H        11.88451545965609    5.06125904061675   -1.13403835235070
H        10.53594401728009    6.05828941413403   -0.60192852683337
H        10.54838794124101    4.33593001089945   -0.24032350624374
C        17.29057389953505    6.65721812847628    3.60109301262273
H        17.54250913898175    5.62523469279197    3.85858101159169
H        17.03261644657228    6.66278442560774    2.54136685813409
C        18.51692459272759    7.53858603461021    3.81241334643093
H        18.35145722550645    8.54110739245881    3.42757570841396
H        19.37057451065938    7.11404729578611    3.28746621908214
H        18.77086606461469    7.61430619990777    4.86701812594271
C        15.63909600377058    8.52668746956078    4.16035579375161
H        14.74295956911940    8.72673840663450    4.74966886528529
H        16.43206961393428    9.17827709287478    4.53391758145628
C        15.33874140065159    8.89822360195769    2.71311320545519
H        16.18647119173290    8.70239460806551    2.06184335974688
H        15.11053594127543    9.96106724961367    2.65509947449788
H        14.47545274441149    8.35139970010482    2.34424783068321
C        15.81056644773360    4.67899188238601    7.14136114072404
H        16.50603748831549    4.98502428966408    7.92686530847066
H        15.00511982771114    4.11295730560304    7.62070671531032
C        16.53377614751460    3.76623362656469    6.15784295111630
H        15.85990414361211    3.42825857136262    5.37301863312941
H        16.93399861596162    2.89665301321056    6.67819215768808
H        17.36906824293513    4.27529368562008    5.68419937299507
C        14.38904894443529    6.65062726507788    7.62717865068948
H        13.71400175185500    5.91873757545292    8.08108080924579
H        15.08658971135130    6.97462365406615    8.40419011496946
C        13.56111483861024    7.84031534023541    7.16155994204252
H        14.19029518096617    8.68752915945315    6.89924979352906
H        12.88980545330694    8.15489447133480    7.95747238365880
H        12.96301222393624    7.56977649873364    6.29451098283525

