63
CSD_code = UMUDOW | q = 0 | S = 0 | Stoichiometry = C13H39B8P2Rh | MND = 7
Rh       13.89687497870552    6.68056715077681    2.86958601040491
C        15.03397810922180    8.68572421944131    0.94049068958080
H        15.55839121280996    8.74427250804140   -0.00630461601546
B        13.60046959002278    7.98404982624112    1.05962711813181
H        13.20296994473661    7.41287307792955    0.10174387942296
B        15.66139867239010    7.92113677452614    2.19704110376176
H        16.65008971595383    7.30019517671700    2.00921215605828
B        15.37851903846302    9.68934167858651    2.22461748892268
H        16.24974571554057   10.47629482209222    2.12325607346708
B        13.81486159301006    9.73814617395069    1.35964394551558
H        13.47609847392972   10.56422114788070    0.59084611044527
B        15.11222491274553    8.60475253184345    3.63364881843388
H        15.78769924818386    8.62329554558137    4.61066440440616
B        13.87506895096783    9.89015122597707    3.11159303327448
H        13.58968761957968   10.88457997156308    3.68457937592069
B        12.71508611085657    8.68798093516790    2.31080453685663
H        11.53113903822818    8.75623803805340    2.28409642056867
B        13.41789618555728    8.45564985098236    3.87150986513321
H        12.84453531093007    8.24282206074001    4.88532196395539
P        15.10985265142352    5.22543632881347    4.28936659932724
C        16.96606506143396    5.26230377242392    4.19085294999322
H        17.24366178566360    6.31777458023148    4.17631996150916
H        17.39707197430642    4.81489914440178    5.08910991656929
C        17.50763356237341    4.57289174883882    2.94514472051242
H        17.31509248298187    3.50248302204661    2.96966255900396
H        18.58346521734104    4.72076192428634    2.86626119072328
H        17.04202920773014    4.98467287906639    2.05225527630130
C        14.82764022741106    3.37922197506342    4.43799033126471
H        13.75649433839043    3.24321314059076    4.60518920913571
H        15.05166962650876    2.95538090558357    3.45610864193377
C        15.60279745701929    2.61585195170835    5.50511711756584
H        16.67542837719398    2.69681842683832    5.35260767168444
H        15.33929421002545    1.55944360988606    5.46120456377090
H        15.36546510714904    2.97599701757952    6.50232625249801
C        14.95324808693751    5.74577845426019    6.06437728010523
H        15.68129560180660    5.21268144027757    6.67973742137585
H        15.20495584022150    6.80729228000768    6.08559130455870
C        13.54490717916965    5.54995305234614    6.60774115141265
H        12.82704170284266    6.04072587931245    5.95570406338126
H        13.45701111782648    5.98052773565953    7.60369544825011
H        13.28909227840897    4.49427303260327    6.67287577583993
P        12.17579040564311    5.20795102397217    2.28985785577341
C        12.70651187914946    3.58506106062456    1.54563243794387
H        12.97391786553169    2.90336400387377    2.35399112436931
H        11.88833789917268    3.13136672949527    0.98354210842951
C        13.90788665692619    3.81667220472438    0.63752993348265
H        13.62730976165213    4.42342166261880   -0.22056005658046
H        14.31643289484714    2.87535324909648    0.27269777869996
H        14.68764368075553    4.34987731716087    1.18549550765031
C        10.93484249827789    5.74497310057897    1.00922006887760
H        10.66440426796089    6.77345968623471    1.25278239574822
H        11.48557711166519    5.78210339878477    0.06691631687056
C         9.67567889457925    4.90591811001212    0.82462076571430
H         9.90777305670421    3.85956021657119    0.63712185888368
H         9.11696103840459    5.27921748654729   -0.03227060957453
H         9.02531611261954    4.96215348672061    1.69302902171606
C        11.05217531879334    4.60589621522600    3.64073194386211
H        10.36242832890049    3.85003867831802    3.25973202521339
H        11.68277001547842    4.13345300579734    4.39681934012822
C        10.30240737284584    5.77435250177321    4.26803401067100
H        11.00111733616543    6.56939994713813    4.52171027576480
H         9.78154124798196    5.46181456832776    5.17166898532260
H         9.57152883973402    6.18641732850030    3.57727912613838

