80
CSD_code = UMULAP | q = 0 | S = 0 | Stoichiometry = C39H37N2NiP | MND = 4
Ni        8.95777879588204    0.12851047466909    5.09914850161603
P         9.33050771525135    0.18774103695139    7.19579770534652
N        10.69892082855328   -0.46103920423032    4.48563253095729
N         8.59214506509106    0.40034607561578    3.16357241673315
C         9.61156490911560    0.16882032782144    0.93340750998378
C         9.60509241409895    0.04661211739976    2.42669027139478
C        10.74316247850842   -0.45342517291277    3.10826826156094
C        11.97761934255925   -0.95382447903104    2.67789814085611
C        12.68743700771992   -1.27292560234828    3.82549071358074
C        11.86753813425161   -0.95192523990016    4.90601321982684
C         7.43714659289437    1.00179365505798    2.63380135081554
C         7.31552899734085    2.39317884123443    2.74239410839773
C         6.15158093281382    3.00500775384464    2.31544226146885
C         5.10218906408379    2.26663013075811    1.78430417778909
C         5.24208016059622    0.89166736252315    1.68350122477102
C         6.39490912263296    0.24268256601627    2.09916559648847
C         6.51633011445320   -1.24659452976224    1.97616035465083
C         8.45161408713324    3.17347307343524    3.33043092213445
C         3.83428364495924    2.94593523723383    1.35990211184234
C         7.14822050445607    0.39271374099631    5.47726270645338
C         6.43940302906933   -0.80876000986006    5.43263810522000
C         5.05840166154528   -0.82196714801967    5.53243515457441
C         4.36452158418071    0.36362778799742    5.69787444378271
C         5.05919914595590    1.55623280561461    5.78065737591599
C         6.44094258581419    1.57323367529089    5.68255131430531
C        10.96480419460600    0.90244389084861    7.58044935646735
C        11.43575852518395    1.86906489361849    6.69705600314029
C        12.66076933327838    2.47194765388708    6.90819511758872
C        13.42764101057488    2.10475850681350    8.00248013699326
C        12.96681647140051    1.13672515326688    8.87964353035752
C        11.73748284231206    0.53463468456297    8.67406304486439
C         9.36779003450657   -1.46556749930958    7.95208667145728
C         9.26308027122916   -1.68075364659229    9.32294253425199
C         9.33440130754585   -2.96799637765132    9.82414312896758
C         9.50319613145038   -4.04387754103172    8.96660473810559
C         9.59167531184080   -3.83540084008994    7.60003540685854
C         9.52210257820578   -2.54997160273213    7.09523668324670
C         8.25164794785892    1.09830997548689    8.34806678540004
C         7.01536144383931    0.54506345812942    8.67425995351818
C         6.13891161155669    1.23157924329165    9.49079427578540
C         6.48263058433808    2.48133013092403    9.98266556304578
C         7.70509172503240    3.04070009367512    9.65322824993108
C         8.58700324092408    2.35546084478066    8.83507716707304
H        12.29887076444043   -1.07183858750318    1.65998440380166
H        13.67741749726380   -1.68521959286207    3.88307236867532
H        12.09507013581256   -1.06161054279145    5.95448583874799
H         6.05587131314657    4.07849335322085    2.40331491276912
H         4.43183964105346    0.30341132086856    1.27524970487390
H         6.96664242141195   -1.75384214354249    5.31564869614903
H         4.52494617961159   -1.76165440154392    5.48385524091383
H         3.28636340901380    0.35537376819733    5.77127371290511
H         4.52497850387623    2.48469816474285    5.92678414788159
H         6.95675433579859    2.52021316091248    5.77026681236550
H        10.83315114385196    2.12316599985832    5.83086682152236
H        13.02339372663468    3.21931600069273    6.21785694425500
H        14.38974822387251    2.56699359109002    8.16768844151019
H        13.57083056660474    0.84485172915433    9.72663503506487
H        11.38928236222568   -0.22943390282893    9.35412102227859
H         9.11264938481819   -0.84461488925251    9.99235125716871
H         9.25665097716603   -3.13408104120879   10.88900484744411
H         9.55849650958290   -5.04627308752616    9.36521745822569
H         9.71292720468846   -4.67451355127191    6.93069451946777
H         9.58591556649093   -2.36885957347600    6.02712934845694
H         6.74633173058941   -0.42494951563214    8.27913370193725
H         5.18291452220877    0.79549325642424    9.74034450694878
H         5.79596679368638    3.01972997052133   10.61915899223307
H         7.97356581833386    4.01632609414454   10.03186571563234
H         9.53874611218138    2.79792306664500    8.57524207090752
H         3.27426963337777    2.32566060923757    0.66423132706000
H         4.04659107089614    3.90279850944303    0.88713738954675
H         3.20473185744054    3.13385663074250    2.23023268750743
H         8.13248666454487    4.16935462307920    3.62794808224471
H         9.26669733183165    3.26826969825192    2.61135435339021
H         8.84584292489980    2.63925165239440    4.20557032074332
H         8.77216001839970    0.76903473269988    0.58831426255112
H        10.54392767043954    0.61971434952261    0.60086409270302
H         9.54266238495502   -0.82320804627962    0.48822634764418
H         7.21679374612511   -1.63459212978039    2.71237962096765
H         6.87939270712865   -1.51907806964123    0.98388505985327
H         5.54853666098608   -1.72055750495565    2.12404110610387

