28
CSD_code = UNABEQ | q = 1 | S = 0 | Stoichiometry = C6H16Cl2N3Pd(1+) | MND = 4
C        10.19652714232549    1.03285885760826    7.78251647258572
H        10.38958685529680    2.03998111051121    7.38149912293910
C         8.92529786157033    0.50258620768875    7.10107501984555
H         9.13764245151073    0.30983010730321    6.04812505614840
H         8.16571725239724    1.28411186684270    7.13863796322443
C         8.34136117705149   -0.76816489457415    7.73805929576044
H         7.33935740195324   -0.92154645724365    7.30812993051020
C         8.15341207436094   -0.57167573763819    9.25716463805857
H         7.83423583109361   -1.52153332185203    9.69193554996021
H         7.36039352050387    0.16606891928413    9.39987876182498
C         9.44315292389814   -0.10088351030786    9.92643133646375
H        10.22138489726311   -0.89975243991074    9.80197009961820
C         9.96863377254955    1.18968227932640    9.30080670294667
H         9.25182191105351    2.00127473861974    9.44582183158651
H        10.91684372862944    1.46879453834956    9.76575938430125
Cl       10.57642729804238   -3.61109181669058    9.51809306638816
Cl       12.92889788098413   -1.32645892001598    9.57462587833959
Pd       11.11677070154541   -1.78399330433540    8.33962404981056
N        11.34727986188098    0.16839387523856    7.49586649701654
H        12.18908040306903    0.48537428275936    7.98763451584623
H        11.55155490327118    0.16442073788730    6.49731650799666
N         9.17886725062598   -1.93695868550100    7.44460655805601
H         9.20126604858384   -2.11828083647481    6.44188221889687
H         8.82598319001548   -2.78028817738045    7.90849859397593
N         9.25131328266008    0.06006075092362   11.40463912827626
H        10.15101408265159    0.31759532783546   11.83212685402187
H         8.96012441218948   -0.84247218228190   11.80354000869756
H         8.54875188300829    0.77566668402134   11.63453495690556

