92
CSD_code = UNADOE | q = 0 | S = 0 | Stoichiometry = C48H40BNPRh | MND = 7
C        14.32642272882838    0.37532039011167    7.46835038882841
C        14.80546638046186   -1.50871950697478   12.14895272409885
C        14.75828391919657    0.02481640208866    6.20000387221284
C        15.13408973347920    0.08283055563714   13.90493366320353
C        15.59375363421417   -0.74179703317056   11.31758948067010
C        14.58461574677345   -1.10321791385228   13.45577972096359
C        20.70219351091328    1.58087702548741   14.04569562006630
C        19.88182714378663    1.62471362051886   15.16223314851626
Rh       16.69352215871936    3.36747394330115   10.83079000695952
P        16.86266391880338    3.36747340978085    8.57947402073145
N        16.12188210152583    3.36747452111660   12.79963783342577
C        17.05137630978612    1.18163395090102   10.86218607068436
C        18.24951459258583    1.83388156484796   11.24488158227247
C        15.91306578035385    0.87340624438473   13.07179698898485
C        18.57952089621185    3.36747250899216    7.96420917754289
C        17.96184993942023    1.94340656755014   13.73910393906606
C        18.77510538318473    1.83383843989831   12.60343948925450
C        20.15356636044283    1.68577363425807   12.78649026046201
C        16.47755684792796    2.16971145510524   13.59514422595580
C        21.29599119258995    3.36747128517462    7.35882848021480
C        18.52307216506704    1.80926592554786   15.00114630896277
C        14.98701159852274    1.36324434371941    8.17575417920762
C        16.51068101159980    1.65993307719306    6.34382806378722
C        16.09032052317747    2.00564764131558    7.62397637681602
C        20.62017882426962    2.16836768980903    7.51763831035931
B        14.70831482324066    3.36747488249769   12.19717799089309
C        16.18330038274655    0.44320677674972   11.76736720805865
C        19.27258915078476    2.16699874428209    7.82781809349806
C        15.84881020142301    0.67032413126288    5.64002780700415
H        17.05381400229958    0.76750906283329    9.85242780132241
H        19.03277091504309    1.86686976499931   10.48640993831623
H        14.65691590374005    1.63602649009282    9.17017440411542
H        16.05630611773754    2.31937574263297   14.60222688542763
H        15.77376764535117   -1.06110565427620   10.29992643456799
H        20.79204094469017    1.63330197606172   11.91529071861308
H        17.88453614567255    1.86642293883135   15.87213552859587
H        13.97267835991999   -1.69981769307072   14.11573590100155
H        18.74704675672637    1.22970016409801    7.95541759343915
H        14.93725369002668    0.41147594259961   14.91604680713758
H        17.36197926890944    2.15469224057796    5.89849530686596
H        14.09683895114903    2.36923666600892   12.36997586536558
H        14.36392290529940   -2.42418759069315   11.78287423079905
H        21.14658715986628    1.23164947153680    7.40407275165489
H        21.76900657168916    1.45801544373454   14.16188229648327
H        20.30239933823545    1.53049051409377   16.15211859444828
H        14.24665223545602   -0.74908344580269    5.64697786109143
H        13.47528161855522   -0.12238751501635    7.90932614920727
H        15.02130027358120    3.36747407560646   10.80809881033831
H        22.34857285125132    3.36747092261443    7.11728048854287
H        16.18546955570803    0.40204535957839    4.64902553132402
C        14.32642876458202    6.35963188752975    7.46835034366424
C        14.75829115001811    6.71013531836927    6.20000408410872
C        14.98701494869219    5.37170592977000    8.17575388694411
C        16.51068360606443    5.07501369893502    6.34382770289129
C        16.09032226546590    4.72930004096546    7.62397599098732
C        20.62017987418233    4.56657550576820    7.51763828102632
C        19.27259021699667    4.56794567883092    7.82781798610142
C        15.84881560467756    6.06462470816311    5.64002775349685
H        14.65691842350569    5.09892431992530    9.17017399032799
H        18.74704861230721    5.50524469184977    7.95541750487190
H        17.36198058086378    4.58025227872030    5.89849499887456
H        21.14658909618919    5.50329324323144    7.40407277257060
H        14.24666177810566    7.48403700127531    5.64697849252360
H        13.47528898507387    6.85734198646376    7.90932619215897
H        16.18547576692092    6.33290305853505    4.64902564129207
C        14.80546600930986    8.24366723650485   12.14895109763000
C        15.13409112165607    6.65211842622473   13.90493286585406
C        15.59375344280450    7.47674479092219   11.31758798762074
C        14.58461616082605    7.83816627589936   13.45577840620635
C        20.70219602445646    5.15406901904542   14.04569167836350
C        19.88183046181796    5.11023283086804   15.16222982217137
C        17.05137651403091    5.55331412308842   10.86218483345903
C        18.24951485388111    4.90106630647109   11.24487968469373
C        15.91306718539151    5.86154267198144   13.07179630403306
C        17.96185179620867    4.79154146454825   13.73910216043837
C        18.77510653606929    4.90110913182889   12.60343716619049
C        20.15356777593976    5.04917296549193   12.78648677879914
C        16.47755837656781    4.56523755875866   13.59514366463328
C        18.52307520481173    4.92568156327678   15.00114406753698
C        16.18330097472275    6.29174152235775   11.76736614331160
H        17.05381382826655    5.96743884433033    9.85242652297456
H        19.03277063008952    4.86807784213372   10.48640749349053
H        16.05630845254364    4.41557386917738   14.60222674896865
H        15.77376693617505    7.79605287368215   10.29992468157623
H        20.79204162748380    5.10164426455577   11.91528667745795
H        17.88453991621860    4.86852484270011   15.87213383780623
H        13.97267858401701    8.43476598963689   14.11573446894693
H        14.93725571906710    6.32347359245797   14.91604631449744
H        14.09683943082331    4.36571346600098   12.36997535878839
H        14.36392174999191    9.15913478919580   11.78287219379513
H        21.76900926371026    5.27692980994576   14.16187756782924
H        20.30240357852546    5.20445542600854   16.15211491972355

