57
CSD_code = UNAKEB | q = 0 | S = 0 | Stoichiometry = C24H26MoO2P2S2 | MND = 6
Mo        0.60835219153889   11.61999675573668    9.59657937081835
P         2.93319473265611   11.74566687262656   10.06781518374422
S         0.68682477192607    9.89298014718169   11.24426034658883
S        -1.28742858870969   12.37662811632635   10.83756412167676
P        -0.87733544225220   11.95154473119238    7.77418413061826
C         1.51218026184685   10.47017148029123    8.33038273470262
O         2.00302766322445    9.73649472371318    7.58604229279274
C        -2.03556482717885    9.53355773249147    8.44912033052382
H        -1.33907252566327    9.56493791373789    9.28381795040167
C         2.26663640998735   13.23534163756923   12.29838580085898
H         1.24549318430016   13.00144955450715   12.00486197650158
C        -2.60782925934437   11.40641510409694   12.99858528920963
H        -3.29093935032618   12.22299143291720   12.81650101233008
C        -2.03302775220114   10.56736282892811    7.52207995447324
O         1.10849926313666   14.50027511347894    8.60157220755165
C        -0.63170997506383   10.18580099566471   12.34337910334621
C         3.32051267994644   12.76173961209571   11.52808484335547
C        -0.07943201024685   12.11986753997994    6.14356445301383
H        -0.82389102302298   12.26859386748786    5.36121588481603
H         0.49686635761260   11.21944652781378    5.93233942665653
H         0.59218559544845   12.97948217637400    6.17926721404497
C         3.88651449526532   10.22621395072539   10.41081407806943
H         3.82732930828990    9.57206270619286    9.53939659636870
H         3.44593329255600    9.71795537046760   11.26935492141539
H         4.92825537981785   10.47102436077663   10.62174237760604
C        -3.78874545295225    8.43389417572379    7.24339152972609
H        -4.47337337677647    7.60603315074571    7.13301645030449
C        -3.78963855609602    9.46059828993282    6.31189215354909
H        -4.47370736056097    9.43085948875725    5.47610829510453
C        -2.78712540929020   10.54757195997795   14.05918307051153
H        -3.62717164303948   10.68315337102520   14.72420087145584
C         0.91440404907672   13.41142722070324    8.93362511260105
C        -0.81814528382366    9.32900087860512   13.42866720378383
H        -0.11304079880158    8.52431294597641   13.57683793739584
C         4.62846472647717   13.06220062859372   11.89984587857528
H         5.46141677608435   12.69942090442187   11.31374144725664
C         3.94855042913307   12.51014961862154    8.76068565099385
H         5.00067026065320   12.52418540588430    9.04585322777684
H         3.60319493338735   13.52941826682332    8.58925378496853
H         3.82483629564086   11.92729357590997    7.84629844455253
C        -1.52439664432800   11.24016665192209   12.13540473258110
C        -2.91092063815871    8.47094996000947    8.31316857936538
H        -2.90714291167427    7.67391704148088    9.04197552408861
C        -2.00993351017461   13.38424627209110    7.76067344503504
H        -1.41725394821168   14.29957099360954    7.79902294417865
H        -2.65197017952673   13.33714258124097    8.64106815161912
H        -2.62138023717551   13.37634458265147    6.85764400302769
C        -1.88633092967768    9.50867410911088   14.27801915553477
H        -2.02690171421600    8.83894367986027   15.11350628272484
C         3.81182668621674   14.30037568945817   13.78698539570730
H         4.00583050663005   14.89963894075087   14.66421152617309
C         4.86900918285341   13.83091498797194   13.02294519225890
H         5.88519218274153   14.06526098638441   13.30511023072981
C        -2.91943959287720   10.52545232112074    6.44891521104353
H        -2.93185286224486   11.32170595244652    5.71744551112251
C         2.50956800909143   14.00053924715344   13.42510346170979
H         1.68303217805909   14.36253486863919   14.01858799305683

