34
CSD_code = UNALIE | q = 0 | S = 0 | Stoichiometry = C16H11NO5W | MND = 6
W         0.66944172703385    8.07662831032498    7.82503424379086
O         1.96479042656187    8.15350759846804    4.96953380084184
O         2.16293287087773   10.73797131063964    8.54594271581514
O         3.21406111849736    6.57407778510509    8.84723759133782
O        -0.45007231142897    7.92357107702779   10.75239055144788
O        -0.61180104409031    5.32797146017849    7.02282610743762
N        -1.32135945354157    9.08378942910252    5.77855313715138
C        -1.33467141896202    9.18042828000140    7.17928693519765
C        -2.57494041907614    8.59370033780618    7.84417869607902
C        -1.98884764737625    8.10098955625658    5.15737895505103
C        -1.92682350189777    7.87512607292461    3.78975996805641
C        -1.18149098070636    8.70047951055779    2.99229999226614
C        -0.49106639999996    9.77294966186110    3.59672743033846
C         0.29578518245583   10.64862294075792    2.82227963597379
C         0.97668417588896   11.68504785808312    3.39720295960413
C         0.88464227030842   11.88437348558232    4.77672068635646
C         0.12786903271584   11.04783593420014    5.55924910177495
C        -0.57964704191477    9.97130229753730    4.99924887016117
C         1.46487007840914    8.14577506069475    5.99997065348349
C         1.56872290379727    9.79748911756436    8.28154271426638
C         2.28363293483458    7.12273574715428    8.46974732111755
C        -0.08429458716230    7.99527982233726    9.67381906728800
C        -0.17828435737092    6.34068943980664    7.33169168653342
H        -1.27627166477456   10.23086038748781    7.47119114822332
H        -2.61901338960609    8.95622633807231    8.86923916101819
H        -3.48803404567979    8.92044168668568    7.33361949892954
H        -2.57586779859048    7.50457609204155    7.88730402771816
H        -2.55316352041058    7.42541088310701    5.77598720345946
H        -2.47983298120292    7.04528768021850    3.37999180908530
H        -1.10822355584528    8.55065414066596    1.92770131965839
H         0.35517442819379   10.47012153226807    1.75920742854638
H         1.58468467736799   12.34411773079439    2.79714866305527
H         1.42015695911031   12.69982231300435    5.23771301156911
H         0.10035733357830   11.24053912168647    6.61837390736081

