69
CSD_code = UNANEC | q = 0 | S = 0 | Stoichiometry = C31H30CrN2O5 | MND = 6
Cr       11.25682124078555   13.66460069200108   11.06959610204902
N        12.62114691257000   15.14646692163730    9.92423047994929
N        11.58558794608889   15.16071998242148    8.94804062686200
O        10.16697598638361   15.49141302242703   13.17893070934170
O         9.21413728721865   11.84926675379952   12.27417834259012
O        12.96716276699736   12.70084492516833   13.34362735126268
O        11.96960564218069   11.23899736146513    9.45846840462778
O         6.16194967963860   16.86226140165124   10.23403421942650
C        10.61593583495008   14.90614206749543   12.29105772412783
C         9.97424232463865   12.56526294643936   11.76967699876176
C        12.34067318673755   13.09611471757192   12.45456713348555
C        11.77823008489399   12.22091242706769   10.04005344105530
C        10.54999921283305   14.46527218518303    9.39343211477922
C         9.30149343739840   14.41653744470230    8.56698522561471
H         9.44969473247434   14.78790484260756    7.54516472809327
C         8.83526621355422   12.96103337102302    8.48996418019372
H         7.98435217135278   12.85581743299591    7.82218252974309
H         8.57242689987302   12.59727935433554    9.48047725332811
H         9.63925759302355   12.33987328662093    8.10148776473051
C        13.88497258308943   14.62065851210614    9.42230208497654
H        13.71888465921637   13.66312467886786    8.93170618225250
H        14.54741748059349   14.45585591243310   10.27111282170786
H        14.38479556664289   15.30125514721131    8.71968252488099
C        12.81563049805014   16.47548649377444   10.49701326997253
H        11.84633669690715   16.89803499760254   10.76088903430525
H        13.32441687453740   17.15980557881657    9.80489917357722
H        13.41681849347836   16.38437229673357   11.40057470222793
C        11.75539000851745   15.92171792275914    7.72052365794030
H        12.76888608458261   16.33530222516444    7.71243902682560
H        11.05939128970142   16.76926036433207    7.70859546181308
C        11.56921860666153   15.10248584125338    6.46381344853309
C        11.12724004372726   15.73360427859775    5.30684594066726
H        10.90290807997084   16.79081149358979    5.33135663814560
C        10.96958602607968   15.01921267561882    4.13325459896523
H        10.62503594166725   15.52198733398761    3.24187592566386
C        11.24787650093981   13.66291042842122    4.10304325506340
H        11.12123777258718   13.10385975285535    3.18844082576909
C        11.68504928151651   13.02719852765674    5.25195326047227
H        11.89965179322472   11.96932200975010    5.23944381898088
C        11.84932824376525   13.74296105127782    6.42471911631356
H        12.17682142358988   13.22861659324176    7.31626425622077
C         8.26596393877264   15.33413604952882    9.27020696816829
H         8.24605306008498   15.06888615250694   10.33266943459979
C         6.85237808966004   15.15197049612925    8.70661412028142
H         6.84741260001669   15.24093437103725    7.61882291627987
H         6.48304272825346   14.15874157183865    8.96896357543220
C         5.87904993299419   16.15801056728290    9.29235222684260
C         4.54443150959924   16.24041412830224    8.64173691910908
C         3.75358373624133   17.35177401910782    8.93604280279060
H         4.14886381712589   18.09324552701025    9.61438479817573
C         2.50187950650359   17.49729226682420    8.37137513352165
H         1.90113058360733   18.36398172928169    8.60416378137006
C         2.01719736865736   16.52668649255538    7.50936361311180
H         1.03733446586743   16.63394460115009    7.06814120375035
C         2.78972757336377   15.41375138960179    7.21759416719605
H         2.40809151400447   14.65287136258830    6.55255964426289
C         4.04698118532349   15.26888986030171    7.77481296624623
H         4.62561833684360   14.38769661689418    7.54399121375685
C         8.72045717225864   16.76743057156864    9.13979837446972
C         9.23182644358510   17.44668536163435   10.23782850453958
H         9.24592790574223   16.95811963761931   11.19981159476219
C         9.68884843193862   18.74774921958539   10.11754617513522
H        10.07725895638276   19.26258611089413   10.98437770791030
C         9.63731288684935   19.39432345567968    8.89450255832968
H         9.98794812227847   20.41143847933164    8.79979744364010
C         9.11908820180603   18.73165570223827    7.79496671294562
H         9.06338587055511   19.23174874146748    6.83823933116965
C         8.66809597678630   17.42839629249058    7.91654178714768
H         8.27135698219460   16.92737397285964    7.04428996962528

