74
CSD_code = UNAPII | q = 0 | S = 0 | Stoichiometry = C37H29NO4P2W | MND = 6
W        -0.65602555197345    4.57050958276239   -0.30706207037217
P         1.47432057769528    5.74848880170484   -0.14031064239893
P         0.17240332439929    7.89120917023100    1.36446280026391
O        -1.27972259486794    4.91983769053440    2.74607139297660
O        -3.39010139485219    3.07825061194190   -0.59916557983821
O        -2.16990703084952    7.27744434058599   -0.71624622115296
O        -0.18451717961299    4.47903934883581   -3.40734543270384
N         1.16568094747473    1.92937817668085   -0.12522070685231
C        -1.00732191960632    4.74720657031262    1.64727923637714
C        -2.37941091253568    3.60700594757810   -0.48564742582837
C        -1.62886863305929    6.28023638152494   -0.55050237234165
C        -0.35296301863056    4.48527963368469   -2.27402017259485
C         0.45395477786639    2.85255259703187   -0.11879486330899
C         2.08162879844852    0.86952722763463   -0.07475839746705
H         2.61837013061742    0.83628328457349   -1.02926934731043
H         1.52095612175763   -0.06421824070498    0.05074063983530
C         3.04246096781615    1.06997504839982    1.07395535636632
C         2.62436248950846    0.82267763066114    2.37493058939567
H         1.61714496008411    0.47532713046124    2.55546197423891
C         3.49270000717874    1.01429932556841    3.43392493701447
H         3.16411663269199    0.80603114510324    4.44150672528676
C         4.78010195178552    1.46959861838712    3.20313654169739
H         5.45757348601883    1.61994622931590    4.03021408182778
C         5.19717603416546    1.72999177350748    1.90996404549953
H         6.19899187722942    2.08783578244031    1.72494297115434
C         4.33264493409199    1.52711230079777    0.84846889054867
H         4.66843825584828    1.71388716936289   -0.16168907058714
C         2.59958699355611    5.47530452171579   -1.54591288516881
C         3.49192423267847    4.40770388487373   -1.48828425030061
H         3.57252005829581    3.84126478677322   -0.56947049931557
C         4.26623177298501    4.08435329968717   -2.58593855525268
H         4.96229433233705    3.25875718437161   -2.53413069555802
C         4.15069883599007    4.81601814211955   -3.75700927156130
H         4.75388129272162    4.56155637218073   -4.61588071984799
C         3.25353380920980    5.86844945650499   -3.82716448073657
H         3.15395365516242    6.43302450669554   -4.74265720418739
C         2.47552987021861    6.19347223841349   -2.73071432142010
H         1.76314557247714    7.00403086453803   -2.80228807285521
C         2.62343702384543    5.45125597842391    1.24306548704424
C         2.27313535377605    4.56282656590248    2.24997912818558
H         1.32751009069299    4.04004584441543    2.19016664360757
C         3.12248636857936    4.35381991940741    3.32156688673647
H         2.83526272177893    3.67519364225180    4.11029086234420
C         4.33504779419499    5.01652371763974    3.38248305661855
H         4.99830858372622    4.85561851323071    4.21928860938304
C         4.70157317430833    5.88667612933377    2.36811439640521
H         5.65171674927327    6.39890014698617    2.41200391340312
C         3.85099667859339    6.10538639362900    1.30268396626483
H         4.14173473517469    6.77852181002605    0.50666691301562
C         1.30094833207971    7.57774854896041   -0.08891259135930
H         0.76665244523960    7.86553964840660   -0.99895733218029
H         2.25275804990215    8.11253653947769   -0.02106615992252
C         1.46120671861077    8.06109184273871    2.66154659705221
C         1.36429685645021    7.25313649776393    3.78706511182018
H         0.53893447300551    6.56025719982177    3.86989796671983
C         2.31227489593125    7.33508597310591    4.79160120296871
H         2.23038254768801    6.70210735516733    5.66305455648880
C         3.36184396115091    8.22940482886415    4.67955825091993
H         4.10353315966039    8.29570415549085    5.46215076011053
C         3.45666560430224    9.04873247212557    3.56577207040781
H         4.26941404264357    9.75636286306847    3.48339606083261
C         2.51090390367785    8.96887626247572    2.56216413150847
H         2.57806566911939    9.62778819383984    1.70642368721661
C        -0.21008969579701    9.66474609700827    1.11222547463560
C        -0.58105050897735   10.16041574927292   -0.13382561235143
H        -0.58833860971259    9.51376284072079   -0.99926048328673
C        -0.96095751049267   11.48240378874040   -0.27797487597348
H        -1.23782354534079   11.85648802851977   -1.25314460733556
C        -0.99629603041585   12.32222737459826    0.82195507204747
H        -1.29269844879148   13.35443821232204    0.70720576630224
C        -0.66493965710299   11.82791734828466    2.07275591741957
H        -0.70781942852245   12.47273105775965    2.93869940004174
C        -0.28438860223385   10.50766687009922    2.21930631471892
H        -0.03587636018618   10.12321305353522    3.19917653453721

