59
CSD_code = UNAQEH | q = 1 | S = 0 | Stoichiometry = C28H24N5NiO(1+) | MND = 5
Ni        7.91151165027379   10.36056435704137   11.84721107421964
O         6.24131959332066   10.63751100718506   12.90501760546484
N         9.09219918183254    9.76536585441022   10.36969798995390
N         6.78813177671042   10.75980877808703   10.49153383758352
N         5.57252981402290   11.14766350958017   10.81216970181585
N         8.93618638334510   12.29061476879347   12.39582749931085
N         8.92516209412158    9.75833780438522   13.35422833965231
C        10.34343212774479    9.32232496310114   10.41198327338735
H        10.71816307950706    9.01011730567883   11.37772267303171
C        11.15007322747182    9.24143266405843    9.28996143276615
H        12.15229761679848    8.85470300163704    9.37248004316734
C        10.64432553224984    9.67317062843547    8.07044238679288
H        11.25472815998178    9.64400027180406    7.18145825568501
C         9.34747712357788   10.14531720828106    8.01452187141534
H         8.92576235104386   10.51214085766967    7.09259027173632
C         8.57665677864024   10.16085386914223    9.17801240827669
C         7.20527543674942   10.62710278291207    9.25795420884568
C         6.36668206428751   10.88540575766326    8.08326053015398
C         6.37145192762459    9.98863755938654    7.01337872719528
H         6.97446795562855    9.09381563043691    7.06331332264673
C         5.57154486365609   10.21948124992113    5.91033281612352
H         5.57515012380622    9.51628615785815    5.09161436451482
C         4.76390055247549   11.34417383043297    5.85714107887662
H         4.14282258101655   11.52237874423415    4.99312904624345
C         4.74827689235434   12.23288124908715    6.91983358338292
H         4.11533055795374   13.10612006102310    6.88451196476353
C         5.53731697819602   12.00446056083662    8.03113158003799
H         5.51905221885928   12.69582179702369    8.85809672839474
C         5.34492576121550   11.05095506261427   12.11728678420978
C         3.99840534658344   11.45027104612064   12.62507575288628
H         3.71497364672717   10.81268863772615   13.45811982699242
H         3.26568433616474   11.39092951502919   11.82680278790090
H         4.04414778714516   12.47681691551294   12.98684295451753
C         8.11665635483398   13.77002937016309   10.67915458607501
H         7.07824223100737   13.48498599916399   10.84546823020233
H         8.50465275835965   13.16136709732396    9.86262017399213
H         8.15283665386315   14.81553821756507   10.38915227316642
C         8.90730761040630   13.52397060682184   11.92055711912277
C         9.59146060112425   14.57550687504357   12.55631967115969
H         9.54313685535683   15.56695143513636   12.13465953178617
C        10.30660364153459   14.33588083243508   13.70003340801008
H        10.83640967322762   15.13028468770737   14.20398888980563
C        10.34210530178162   13.03226903106296   14.22609864700180
C        11.04450622928395   12.69187544815392   15.41580516543538
H        11.58224133070406   13.47315125735657   15.93085971904404
C        11.03317141543311   11.42390055684120   15.89490880449689
H        11.56076205211663   11.16899486121137   16.80109976462721
C        10.31875763861238   10.39384694630219   15.22156302088750
C        10.25865529586990    9.06763542310109   15.68771578695226
H        10.77797820638494    8.79787084262089   16.59476517520685
C         9.53203964154838    8.14103153447059   14.98749171351723
H         9.45835247835761    7.11966340095770   15.32610056206563
C         8.86119862169519    8.51894116661986   13.81193243933976
C         8.05359129699218    7.53014698646022   13.03796155347229
H         7.54302325861795    8.03497861111805   12.20302989446621
H         7.30472980839812    7.07251830086506   13.68178190702716
H         8.68872551723410    6.73742937322257   12.64431841179215
C         9.62166923602188   10.69486104496546   14.03323576942104
C         9.63092077013767   12.03621668620215   13.52579305997610

