50
CSD_code = UNAVIO | q = 1 | S = 0 | Stoichiometry = C22H21N4NiOS(1+) | MND = 4
Ni        0.45387044428598    3.78298933763452    3.41064255925156
O         1.99081275602995    2.73614333980828    3.63399170811927
N         0.07370596305112    2.77356837364004    1.76096883318391
S        -1.51011130636574    4.94340105861936    3.14861539960824
C         0.01542447379033    1.44310467462406    1.75552444048663
H         0.23229562460633    0.94454528796531    2.69205219056921
N         0.87730836547728    4.86524856334120    4.93376065866236
C        -0.29401405030875    0.72588508271770    0.61306391484728
H        -0.33012146540419   -0.35056557275620    0.64428588196901
C        -0.54905188615271    1.41760264719208   -0.56067982851525
H        -0.79309370496291    0.89050943815493   -1.46966374895107
N         6.15076373983445    3.08702958793860    7.18614906700469
N         7.13504245353423    2.30763699055396    7.08648824507789
C        -0.48294780839617    2.80161207678883   -0.54920978710225
H        -0.66766713325013    3.37187501051657   -1.44579868103525
C        -0.16162496661835    3.45313223023290    0.63245486087116
C        -0.10143552680981    4.95270619337405    0.73943009423422
H         0.00544753325119    5.40339884705441   -0.24793531684314
H         0.77379922731913    5.22754053609664    1.35123316024432
C        -1.37430975950308    5.48049638993107    1.40486462830787
H        -2.25934174661369    5.09262883797008    0.90042013822529
H        -1.40836948115972    6.56820693832039    1.39676150312339
C        -0.80055615532030    6.38764315730528    4.03781704333753
H        -0.07908117991800    6.87479081766732    3.38149421241443
H        -1.61103514024768    7.07408404169439    4.28078014154322
C        -0.11920884247430    5.86658706016065    5.29422033952547
H         0.34473274854202    6.69877947007557    5.83842641096155
H        -0.87027386205174    5.40443793302632    5.94770595838214
C         1.91439312943264    4.73752888148090    5.69711295863102
H         2.00812355252587    5.40729041825047    6.55326004982133
C         2.97478249289560    3.80776779935423    5.53511543398499
C         4.06149703890112    3.84157144924769    6.41874475141017
H         4.08076400228759    4.56433130590826    7.22031516884152
C         5.12507705310613    2.96645532072222    6.28492619170702
C         5.10387061302227    2.01460250225845    5.23245579531947
H         5.94163632724966    1.33905242666924    5.14662468178973
C         4.06014708679506    1.95956108792604    4.36401755281925
H         4.03327895330918    1.23672767385105    3.56336241413109
C         2.95000089255039    2.84555544961991    4.47304022562042
C         8.17691222687757    2.41475850985695    7.97137496535954
C         8.20689231947098    3.31963193465856    9.04406842807913
H         7.36381717576158    3.97727461773843    9.19106217111642
C         9.29846373367524    3.34824671196971    9.88290657007819
H         9.32406221570759    4.04212924245078   10.70965020661204
C        10.36814646651810    2.48764232956250    9.66953437666324
H        11.22030012845463    2.51699658650160   10.33128654302374
C        10.34555967993297    1.59089590982046    8.61072499311369
H        11.17962186405238    0.92511910287049    8.45035490191723
C         9.25761550523289    1.54830418196464    7.76398672270101
H         9.21967822808268    0.85903820767788    6.93481086975480

