107
CSD_code = UNAWOV | q = 0 | S = 0 | Stoichiometry = C36H66Br2P2Pd | MND = 4
Pd        4.80166971622140    5.08957128225223    0.00005609121113
Br        2.99999524465147    3.72938272121460    0.91250722903953
P         6.05726163509800    4.58236373302825    1.88323288315217
C         7.64019536770967    5.53376899383332    2.15978923613691
H         8.10613604565651    5.52187335614975    1.16342863916788
C         7.32270575651252    6.99123781025999    2.50037429011999
H         6.53326042226720    7.37204487571847    1.84430107689871
H         6.97121033336602    7.06198262125673    3.53215341927642
C         8.57807459593197    7.84274616305777    2.34377053430274
H         8.35362014720694    8.88308603176667    2.58768698820603
H         8.90568266958453    7.80531332151786    1.30311000043864
C         9.68254082610514    7.32003483787377    3.25736569143722
H        10.59388951096010    7.90281819020653    3.11122708231531
H         9.37622532517282    7.43702113609102    4.30044850157390
C         9.96136128730574    5.84617435732929    2.97672350117476
H        10.72971661175878    5.47678039404135    3.65993111545380
H        10.33874645077147    5.73861020809300    1.95726242494751
C         8.69050963154523    5.00979496590942    3.13781052682111
H         8.34340489483259    5.09263637272212    4.16699191385614
H         8.93257547016476    3.96252659294045    2.94890936370639
C         6.67795618248306    2.84225311236979    1.58954280863134
H         7.67233535065349    2.75500959554942    2.04312310760491
C         5.79761859605053    1.72595132080836    2.14943804866469
H         4.79115250849349    1.79091039706366    1.73265252038816
H         5.72287341279952    1.81017776409200    3.23532164963908
C         6.39117761970851    0.36451766720551    1.79101141524359
H         7.37876696400007    0.26267103301288    2.24954538870192
H         5.75276176686033   -0.42445127369807    2.19294916070491
C         6.51664445881773    0.21241212095440    0.27848626381304
H         5.52307978674149    0.26992471244281   -0.17219278645481
H         6.93997407484556   -0.76378831710527    0.03426643361429
C         7.39733590195181    1.32024723165604   -0.29041268699515
H         8.40625582188802    1.23292650225365    0.12140238625084
H         7.47055086014557    1.22413104917956   -1.37591897892092
C         6.82266319815473    2.68573822190200    0.06791995044075
H         5.82265907313791    2.77950737774310   -0.40320672174307
H         7.47701386110653    3.47337157383122   -0.32761947851739
C         5.06474569509666    4.57462635154628    3.45586239949722
H         4.37855323018562    3.72788559587567    3.32250933386880
C         4.20309807682937    5.83861473265471    3.54197767636337
H         4.82247790405299    6.71053312526946    3.76108955361983
H         3.69659304791505    6.01967455608096    2.58421753432404
C         3.16714551054467    5.66486465792547    4.64792834667278
H         2.55056254330979    6.56290563721297    4.72493877532239
H         2.51210397288723    4.82818900650122    4.39606150249823
C         3.85830440330404    5.39460607742752    5.98228265360254
H         3.11041572888263    5.23230691212142    6.76075934674227
H         4.44953168746280    6.26930270724730    6.26637117826739
C         4.77531256649826    4.17740633115144    5.88574008133954
H         4.17674099067362    3.28783753746163    5.67662607152004
H         5.28678337454002    4.02150022841288    6.83837005231472
C         5.80492757541677    4.37042769096766    4.77227660635963
H         6.46734953097425    3.50336944913451    4.71827188945094
H         6.40726493698491    5.24972246938642    5.00649360398472
Br        6.60333282364023    6.44974175052723   -0.91264131123785
P         3.54620823469493    5.59659714405572   -1.88305636908440
C         1.96330564358821    4.64521855858646   -2.15989647963625
H         1.49729649289572    4.65702189551017   -1.16356572769680
C         2.28081346502394    3.18776308421572   -2.50053443127314
H         3.07015359777126    2.80692796947157   -1.84435003050212
H         2.63247799566314    3.11706270252055   -3.53226032898730
C         1.02544563123625    2.33620515316481   -2.34416285291016
H         1.24994265389203    1.29588994989994   -2.58815747415478
H         0.69770282439328    2.37353070544579   -1.30354066624561
C        -0.07890990656737    2.85901448646268   -3.25783882997710
H        -0.99026230802373    2.27620082125858   -3.11186397890580
H         0.22751818583656    2.74213709138955   -4.30090038710570
C        -0.35782990613257    4.33283123766250   -2.97707595237201
H        -1.12614770268378    4.70228077885517   -3.66029776059635
H        -0.73527564819719    4.44027666769082   -1.95762331965117
C         0.91304105244838    5.16921209248977   -3.13796474304626
H         1.26023681712177    5.08649498262303   -4.16712590473098
H         0.67093420379684    6.21645294813581   -2.94897707939937
C         2.92541919265460    7.33671401756822   -1.58948985970954
H         1.93107979994307    7.42400333585980   -2.04316312975040
C         3.80577184854713    8.45309346128272   -2.14922512440020
H         4.81218830502201    8.38816615859339   -1.73232293980008
H         3.88065800404492    8.36892436889011   -3.23510544922430
C         3.21212273981158    9.81448729287791   -1.79078494670935
H         2.22457997709766    9.91631986856286   -2.24941593311258
H         3.85054484994551   10.60350913296464   -2.19260558067536
C         3.08646941912154    9.96652160835560   -0.27826598671390
H         4.07998193852481    9.90900637602204    0.17252945264919
H         2.66308746725515   10.94269951174439   -0.03404250237916
C         2.20575456236350    8.85860738538126    0.29044097844952
H         1.19688487498517    8.94591576241817   -0.12150923037142
H         2.13237427945958    8.95467094129323    1.37594172902616
C         2.78051034136549    7.49314045603891   -0.06787096498357
H         3.78046257349203    7.39935493488280    0.40337482185227
H         2.12612346852741    6.70547534375144    0.32755016477307
C         4.53872467872862    5.60445643640375   -3.45571751561449
H         5.22489435587828    6.45120301073042   -3.32229141113034
C         5.40043701924681    4.34051399350985   -3.54186881760071
H         4.78110688707469    3.46859842055179   -3.76112167961710
H         5.90684059123077    4.15937342259586   -2.58407206438430
C         6.43650313120331    4.51435038622350   -4.64770336621838
H         7.05310760910760    3.61632428424546   -4.72471840389519
H         7.09151621818920    5.35101155157729   -4.39571733063943
C         5.74549144291847    4.78468700771579   -5.98212029004060
H         6.49345856995172    4.94706170705263   -6.76050695768390
H         5.15431478219447    3.90999739169107   -6.26633263706143
C         4.82843881696615    6.00185220657637   -5.88557709991720
H         5.42696715366520    6.89141291314683   -5.67630910079268
H         4.31709031279106    6.15783245281571   -6.83826102010010
C         3.79871261917708    5.80872344907035   -4.77222709630888
H         3.13625202239244    6.67575402367350   -4.71824268822674
H         3.19643384050840    4.92942624505554   -5.00657998821073

