101
CSD_code = UNECOG | q = 0 | S = 0 | Stoichiometry = C50H45Cl2FeN3 | MND = 5
Fe        8.26922396979365    6.50532905092542    3.17682661195645
N         7.39264029494074    5.87928725948835    4.80915508840734
Cl        7.50285057299570    4.92344452041042    1.97471661664489
N         6.73699803301579    7.36819935184610    2.99421825352489
Cl       10.17627010735226    5.73898366140183    3.57953154669496
N         8.76105659752173    7.63572770038635    1.64672626368234
C        10.09693846744537    8.20766366790986    7.02491597407611
C         8.11368801689845    3.87958057649991    6.02576918083198
C         6.14774862577856    6.25018865396081    4.91464306996022
C         4.45386205984953    7.65722660473914    3.63857281723632
H         3.64475170429253    7.41850624788878    4.30871788157785
C         7.46694879844764    3.00348595730886    4.97690087932024
H         7.58355634754459    3.51498889304764    4.01399044189476
C         6.55051208611116    8.19291923342570    1.93285871013295
C         8.06847851482927    5.26703532222910    5.88069105358972
C         7.57451395660701    8.28488630859621    6.83551517746293
C        10.06527855024796    7.76498627762420    1.13117737449319
C         5.98874113355140    2.85117243827431    5.23101897285472
C         5.70882627103607    7.09240752209255    3.83572728757640
C         7.76962952311105    8.34438251201067    1.18602431561309
C         8.20282407497852    1.68668405949521    4.85728370111978
C         8.77671564101255    6.09617181607944    6.75762334086291
C         6.97675643374901    8.06386950922162    8.07101161969847
H         7.43266500699875    7.37246272576269    8.76466855741542
C        10.48253305854228    7.01350769858903    0.02861626866668
C         4.26289111975613    8.51509268523083    2.56454281629953
H         3.29542586331264    8.96082459539664    2.39419324808747
C         9.42255751126233    5.53255768123415    7.84455438093765
H         9.96225862188071    6.17249131041608    8.52781061759078
C         5.31468069360316    8.78962704468051    1.70225773561097
H         5.17853943678067    9.44250457068811    0.85543492244683
C         8.84724617365065    7.57883816327966    6.44836504018514
H         8.93803573018717    7.65303269895820    5.34704972691517
C         8.77703507773559    3.34884100005986    7.12076100763938
H         8.81687387897273    2.27577501156965    7.24110576455938
C         7.86893827799350    9.29365831260949    0.03434186691380
H         8.89076788929060    9.34178416303717   -0.33422513374717
H         7.55056514840584   10.29025671905560    0.33776549776006
H         7.21526258685011    8.96307445719980   -0.77217573327711
C         5.25481478068405    5.94880424310877    6.07202391845285
H         5.80152129227106    5.43226364059121    6.85606023678220
H         4.43273830331169    5.31414300865881    5.74320358285840
H         4.83926416905309    6.87215524829819    6.47222735916701
C        11.79614456521075    7.14522945825237   -0.39859975211268
H        12.13064137786447    6.56630520321630   -1.24687334852574
C         5.50043986188087    2.55319334621065    6.49828492548231
H         6.19047576532764    2.43146931316238    7.32125086680055
C        10.94774445733302    8.62429640204125    1.79613824052476
C         9.41150013637639    4.16041567293787    8.05122142411455
C        12.67526366705014    7.99569383851106    0.24544420495665
H        13.69476601324272    8.08121615898360   -0.09939011112712
C        12.46716848355817    9.29429184811253    7.99789412366783
H        13.38612626614345    9.71651400750682    8.37748189534839
C        10.07093472615999    9.14279997280545    8.04892351988019
H         9.12875203466448    9.45834297883892    8.47317089090831
C        11.32237255475240    7.82332275748132    6.48762179921964
H        11.34567684123587    7.09554922421627    5.68914731940781
C         9.52611937052163    1.72317638256876    4.42738654390600
H         9.97715635873330    2.67520806207099    4.18757265378247
C        12.25046828453258    8.73005287681370    1.33805248892883
H        12.93752934446518    9.38873569246001    1.84859012170849
C         6.97467572047043    9.17003423403728    5.94877817388280
H         7.43331321378648    9.35077385863872    4.98442125953445
C        12.49857596166586    8.36293426088798    6.97210106020913
H        13.44286298478775    8.05602162161997    6.54737162731044
C         5.09117864552564    3.01011976226588    4.18254313791082
H         5.46347513831167    3.25127913971299    3.19774993024466
C         7.62493536382778    0.46132075374549    5.15280687168254
H         6.59561074821608    0.41115183616605    5.47721633742649
C         8.35896934886699   -0.70726387060072    5.02883200905876
H         7.89596278740932   -1.65586850734712    5.26114071813108
C        11.25203232620850    9.68214540219658    8.53266662369921
H        11.21872602523091   10.40932421777462    9.33127017545869
C         5.21015022929411    9.59144101824906    7.51571631451148
H         4.29235734760470   10.09604548917688    7.77903475591761
C        10.47268045801136    9.40674353230244    2.98365934294035
H         9.99326809606322    8.73569210577911    3.70068127042985
H         9.74236939214731   10.16122359949702    2.68646261567125
H        11.30389425152110    9.90216308729300    3.47768956987227
C        10.10131744215801    3.55020469122554    9.23314892125100
H        10.58329985799244    4.31264578874307    9.83965938142373
H        10.85607712781727    2.83855700867853    8.90234477344931
H         9.38653199935821    3.01033858750689    9.85371412081424
C        10.25790208589661    0.55771171205823    4.30706890051470
H        11.28431635607455    0.59976505743421    3.97279701653664
C         9.53127095386398    6.09239444791480   -0.66603422468063
H        10.05330448000277    5.48660493453353   -1.40156469929369
H         8.74642951447170    6.65433721396592   -1.17288771896731
H         9.04805974963534    5.43528825042238    0.05488411818829
C         5.80468488506388    8.71630047155912    8.41011043144583
H         5.35059357113762    8.53859064317631    9.37398124590895
C         5.79805038145301    9.81642088897053    6.28236057227926
H         5.33895593706582   10.49554427704055    5.57860113189674
C         9.67631449156454   -0.66311857613698    4.61020801256630
H        10.24687053706600   -1.57579347956769    4.51597196436273
C         4.14073995444185    2.41226287680166    6.71232574868489
H         3.77311357952372    2.17647936114559    7.70089593152615
C         3.25169251483190    2.57091788291021    5.66215717157175
H         2.19001295070196    2.45962745232255    5.82945790910968
C         3.73076565271511    2.87134617004192    4.39765863713631
H         3.04175342786962    2.99735747825143    3.57488319304556

