67
CSD_code = UNEDAU | q = 0 | S = 0 | Stoichiometry = C32H26N2O4S2Zn | MND = 6
N        -2.20202129280011    5.45598848431228    5.59663493789898
Zn       -1.58569284373588    5.10234389724070    3.72364380421775
O        -0.11024858827791    4.10371913906856    4.31072898028674
O         3.81701826708549    3.40511086260125    4.15698635996495
C        -4.19838814522595    6.55542931713623    4.79867986059910
C         1.93344496429316    4.02828331481402    5.46189047478440
C        -3.54032588398537    5.77846653654024    5.76020490377165
C         0.53107192786499    4.32369745744261    5.38754298720820
C         2.62567844552183    3.59278157171151    4.25389590209297
S        -3.34589093433725    7.19291259929312    3.37159075254290
C         2.82072529825006    4.77560499341413    9.07516622440622
H         3.18984281285139    3.79973843668785    9.38795410131932
H         2.21551710260770    5.19067697617874    9.87691507083248
H         3.68316901493717    5.42126080873111    8.91746132730239
C        -5.65832884864782    5.50216762799628    6.89499786923124
H        -6.22514835471998    5.07594974777174    7.70877334702026
C         2.02547874297581    4.64788944753162    7.81137791278838
C         2.63599118709375    4.19370904029959    6.64064688041719
H         3.69136937149997    3.95782890453949    6.63277854028993
C        -6.29628373273376    6.26170151676588    5.92769239634951
H        -7.35972264160658    6.43206481588506    5.97900444977283
C        -5.56143372990138    6.78515685137758    4.87977253686217
H        -6.03746134840868    7.36756634557126    4.10621216497329
C        -2.26114786717424    8.50965672383019    4.06857293849056
H        -2.77042634757801    9.45887235957766    3.89738326291971
H        -2.15795002925339    8.34029648140304    5.13901987012817
C         0.69221189449224    4.98268845073778    7.75148642743193
H         0.20252392919332    5.36940763174069    8.63620259117958
C        -4.30089695804511    5.26300490788003    6.81365092790596
H        -3.82181159263035    4.62072224770587    7.53766712381770
C        -0.07108405176116    4.86898322776296    6.57373696305084
C        -1.41603793025654    5.30893196152132    6.61748177889733
H         1.95313467217950    3.45753787643821    3.38761788414053
H        -1.78963178763385    5.59561864759955    7.60631302687395
N        -0.96942518923892    5.45595076693237    1.85062479841074
O        -3.06113833030250    4.10365206221510    3.13661700476404
O        -6.98842923196788    3.40525463350539    3.29060721025385
C         1.02698336515888    6.55534687593063    2.64853192201821
C        -5.10489923241841    4.02828120358380    1.98557093271738
C         0.36887274810822    5.77843729268469    1.68699867043202
C        -3.70250083160606    4.32359801554445    2.05982150820063
C        -5.79708334354164    3.59284363337126    3.19361900887570
S         0.17452141673126    7.19285063964980    4.07562932671899
C        -5.99237065999344    4.77567000259639   -1.62764859742973
H        -6.36059422826515    3.79964418401614   -1.94100808096151
H        -5.38749449350520    5.19171610078887   -2.42914239441134
H        -6.85539927570408    5.42045711731454   -1.46962629141360
C         2.48680792642741    5.50230508078752    0.55203748659911
H         3.05361167700752    5.07602552801190   -0.26171568417891
C        -5.19706506418279    4.64794795908645   -0.36389546592815
C        -5.80751684013327    4.19375832847064    0.80686379691444
H        -6.86289066805825    3.95785962923389    0.81478358102760
C         3.12481107843490    6.26177483685978    1.51936157395159
H         4.18825761944490    6.43209026331208    1.46804731598453
C         2.39001687085264    6.78511445811535    2.56737562779856
H         2.86606551741458    7.36752388074267    3.34092351926810
C        -0.91024510382987    8.50962744441199    3.37874302154403
H        -0.40095424604841    9.45882949153778    3.54995511663359
H        -1.01343348563185    8.34031647877271    2.30828912749057
C        -3.86378356649119    4.98270280336018   -0.30407920899767
H        -3.37413607577858    5.36940828610589   -1.18882368485432
C         1.12939050917673    5.26308030353300    0.63346610678066
H         0.65029571588059    4.62078232704456   -0.09052883405512
C        -3.10041730990253    4.86895263753365    0.87362081074309
C        -1.75547401700795    5.30892992178217    0.82981957666208
H        -5.12442080126318    3.45705363824001    4.05971879004157
H        -1.38190717190003    5.59554496582149   -0.15904217137035

