101
CSD_code = UNEHIG | q = 1 | S = 0 | Stoichiometry = C33H60ClFeN6(1+) | MND = 4
Fe        3.39411896893664   11.44314228374738    0.77636152034881
Cl        2.67691532748477    9.62467632965508    1.21265421728596
N         1.45033859373812   10.50844726456693   -1.79803882330944
N         0.87786673920712   12.45982191159381   -1.09221025047222
N         6.26953639107141   11.64228394220159    0.70788614660766
N         5.64475808435783   12.26153548652336   -1.26783808520599
N         2.92384864973973   13.15374118897027    3.13925138761398
N         4.13230270390220   14.40960975166142    1.86614972951614
C         1.83031407623308   11.50386848661573   -0.95866642820637
C         5.16939303901515   11.92357489118145   -0.04349434975359
C         3.41599994243118   13.25595792839442    1.87291710728603
C         0.27365118290160   10.83209104690475   -2.43840217666713
C        -0.09091623726421   12.06765924292324   -1.99080672187921
C        -0.43589448211303   10.00291472470795   -3.44878078703767
H        -1.46511683749671   10.34132416011899   -3.53586228429968
H        -0.45139050700044    8.95349404739214   -3.17293054955099
H         0.02814735582497   10.09901599783829   -4.42992698821870
C        -1.28725870964460   12.85208037756145   -2.40123242563055
H        -1.67722300585981   13.45459644841993   -1.58809421066841
H        -2.07494864644940   12.17251876411009   -2.71805313826530
H        -1.05658589076221   13.50491674703321   -3.24380554377165
C         2.22684797168425    9.29528494088015   -2.00162453822098
H         3.16129470336214    9.48098050335720   -1.45690709763175
C         2.55161744558253    9.05875930169344   -3.47836953127488
H         1.75932166552340    8.50883835056891   -3.97612884821347
H         3.46120842975727    8.47013875674005   -3.55982613050373
H         2.70112829230312    9.99998379340843   -3.99830736317331
C         1.55138578968696    8.06238536515122   -1.39933367092837
H         1.24768611655880    8.25158243098832   -0.37493195013595
H         2.25653587976279    7.23564697582361   -1.40188590058228
H         0.67721149889510    7.76044860289392   -1.96840965640412
C         0.96031118383653   13.72510447682518   -0.38922838476873
H         1.93383134731096   13.67487195752221    0.12097495818298
C        -0.11731126138733   13.85716669852670    0.68743697721424
H        -1.09449009107825   14.07924891602757    0.26936316422287
H         0.14658205493240   14.66621340309377    1.36347843226791
H        -0.18458879806313   12.93359524981324    1.25617502387314
C         0.96613301930855   14.90950375491481   -1.35335408949718
H         1.72968320802849   14.76941935511227   -2.11414086066099
H         1.18508672525434   15.82208513685426   -0.80733597604937
H         0.00632910210610   15.03906336946771   -1.84107843353714
C         7.41736721873342   11.79115385264111   -0.04192171705433
C         7.02399210981008   12.19440184113331   -1.28298992890250
C         8.80886037222144   11.55822040160945    0.43099027439835
H         9.46638987118826   11.44719333931721   -0.42646700538570
H         8.88274934141281   10.65208772222540    1.02531792002235
H         9.16899521441425   12.39592624795718    1.02866441292298
C         7.91788730041171   12.50598128441436   -2.43240115703595
H         8.86847342780978   12.87878541729859   -2.05867154257995
H         7.49551619982557   13.26593373810942   -3.08000314100815
H         8.11697361720761   11.61380236232253   -3.02662308487090
C         6.15765984048115   11.16140579906815    2.07711974752478
H         5.11133349015884   11.37640526913564    2.35991759891480
C         6.35007457866899    9.64611856348805    2.13755805657599
H         5.62896077089949    9.15561215924238    1.48554560198278
H         6.19165237177719    9.29502347396098    3.15363034826329
H         7.35045822381476    9.35619249701904    1.82888740978731
C         7.05679485720169   11.90371785722808    3.06205810387340
H         8.09392272523321   11.59700977211670    2.98033928208618
H         6.72462652607736   11.68713984832092    4.07428572524806
H         6.99074223193607   12.97856281708976    2.90900717115004
C         4.76153594456345   12.49284548343576   -2.40027259319226
H         3.76029374180740   12.27970363474455   -1.99589643249942
C         4.77730672191329   13.92985095457020   -2.92293215074760
H         4.56376926073383   14.64146813606559   -2.13302434832327
H         4.01044554734131   14.02812249382780   -3.68679305538276
H         5.72862584653688   14.19151211706623   -3.37632399284040
C         5.06179478164513   11.50972052938964   -3.52988910412987
H         5.99405752335458   11.74627371590062   -4.03145398916176
H         4.26849636737430   11.56006592181758   -4.26949196098574
H         5.11779497741297   10.49619262257097   -3.14378060757813
C         3.36246097041777   14.20331093342691    3.91818591827095
C         4.11936849261048   15.00075261357019    3.11272218664572
C         3.05623591271674   14.41606775707639    5.35775865244439
H         3.82746316578001   15.04051248315545    5.80239864825093
H         3.02394176212170   13.48043651884895    5.90707369794814
H         2.10287439171621   14.92789609732833    5.48521079920805
C         4.79111198980249   16.27380659728215    3.48610295301447
H         5.00896875406521   16.27077273049845    4.55147107196831
H         4.14609638165428   17.12916136965038    3.28522551047165
H         5.72611596278198   16.40945578415852    2.95368039586415
C         1.98586167593631   12.11310644435190    3.53848988374150
H         1.66606334297318   11.65149252644222    2.59079869688399
C         2.65982293218162   11.03746262357060    4.38957200595791
H         3.47020520632016   10.56570994139898    3.83660348329615
H         1.93236557602040   10.27055148374387    4.63996944243741
H         3.06082126384746   11.44523022544172    5.31352604245958
C         0.73944201417281   12.67691023672434    4.22049174849484
H         0.90045529251099   12.85784577046669    5.27804045698114
H        -0.07000205905423   11.95757634899839    4.12814339527713
H         0.42655881059646   13.60351814565113    3.74604737416204
C         4.63971910228605   14.98592082703500    0.63453755271597
H         4.31643312775933   14.26281295111443   -0.12151482642564
C         6.16400417739723   15.09114017404889    0.58461995779920
H         6.53418423102048   15.94177072448677    1.14916264825970
H         6.47946193728151   15.21913039760228   -0.44708733851687
H         6.62478197436144   14.18845749428920    0.97192702590506
C         3.98553460238547   16.33856912011447    0.34978146905975
H         2.92126942095632   16.29603661166724    0.56427129430683
H         4.11688823905405   16.59713465554895   -0.69729067731501
H         4.42877932467804   17.12962817749144    0.94615121950207

