62
CSD_code = UNEHOK | q = 0 | S = 0 | Stoichiometry = C21H34N2O4Os | MND = 4
Os        2.67862936670673    5.84960684766065    4.04682640171155
O         4.13742821462840    6.56918760753596    3.93488659670232
O         2.14161120940410    4.50799595239206    4.81924009804654
N         1.86520210769487    5.84746695242060    2.34123024352847
C         1.03234616205168    6.97872140926174    2.01853154410971
H         0.24300227300328    6.72395165745200    1.30221774374231
C         0.39532135801360    7.47084173481613    3.34204592794465
H         0.23808902394971    8.55563322056813    3.27353859805018
N         1.35257733240170    7.15241359305273    4.38709451845158
C         2.06738160940733    4.83243687189726    1.31103264894335
C         2.38642379077882    5.44842957430339   -0.05964381785356
H         3.29573418304567    6.03810177508650    0.00581834202589
H         1.58108463619267    6.08508531976048   -0.41632786718118
H         2.53644879503244    4.65349758160561   -0.78638150830115
C         0.79858280154569    3.96572901718540    1.21985805433664
H         0.56800211891510    3.56098894971954    2.20190942397674
H         0.95122443400551    3.14486164242457    0.52419909322765
H        -0.05340470176073    4.55068001234294    0.88217095631703
C         3.24910843548373    3.94097564513676    1.71445812171677
H         3.03195808046843    3.40969146730061    2.64069649417068
H         4.14642310308626    4.54462920730227    1.84848918670967
H         3.43945417860231    3.20500402999670    0.93662233332735
C         1.82838658700394    8.16664615615020    1.43960344048045
O         1.27910069063256    9.13620767276448    0.97572244020405
O         3.11795917416271    7.97058751105262    1.57409611340235
C         4.10385110692970    8.96012113348313    1.16528099295982
C         3.95349742791673    9.27640231391385   -0.32202678766321
H         3.98618690886531    8.36115077448935   -0.90953226773029
H         4.76891095144005    9.92221238483225   -0.63623830217231
H         3.00978718874769    9.78010011990033   -0.51222330333525
C         5.44123645960967    8.28014444510009    1.45331516905567
H         5.62945403673486    7.48794089885241    0.73294681893697
H         5.40379340893907    7.83748126180166    2.44579884088435
H         6.25146885281458    9.00158442824225    1.40585291794780
C         3.94311540731042   10.22039645530556    2.01180601490894
H         2.95656058618961   10.65160362780368    1.86322952802380
H         4.69205872131916   10.95342938638633    1.72493851418437
H         4.07120454350382    9.97579191626843    3.06282566731247
C        -0.95008048728360    6.79294948884578    3.51681023347995
C        -2.10060264588943    7.42871632494273    3.06722966731100
H        -2.02882240365480    8.41398985323316    2.62842753987943
C        -3.33221961132966    6.80692760111331    3.17381666687262
H        -4.22099900880349    7.31107074927006    2.82384303703221
C        -3.42427621161283    5.54194124542973    3.72898007977137
H        -4.38535907390689    5.05671835614286    3.81391144886623
C        -2.27955512409347    4.90216889417654    4.17437900187473
H        -2.34700734709798    3.91466401819075    4.60649655283229
C        -1.04656171374499    5.52185981426259    4.06803312848981
H        -0.15227804052940    5.02687935392547    4.41809824829374
C         1.33729559798876    7.98081030616521    5.59156635542472
C         2.10306139871754    9.28523080789381    5.31332408008028
H         1.61070715914653    9.86851078304029    4.53879488143469
H         3.10791866861478    9.03646696288016    4.97781630125006
H         2.16901870529819    9.89012498629164    6.21380035459238
C         2.03992244189678    7.22373173725335    6.72790331282260
H         1.55383848445625    6.26448722558756    6.89613719804937
H         1.99126421971135    7.80551657993283    7.64531189476222
H         3.09095593312283    7.05206914802136    6.49076591897162
C        -0.09498076225683    8.29376265999318    6.04911347335435
H        -0.65305844985578    7.37346084152496    6.19634260770745
H        -0.62557236128799    8.90810446932495    5.32803716790670
H        -0.05830993238560    8.83500723698985    6.99135191783509

