78
CSD_code = UNEJIG | q = 0 | S = 0 | Stoichiometry = C33H40N4Ni | MND = 4
Ni        2.26747612968673    1.60959924451137   12.43311577075229
N         3.16531037919075    0.44365490103721   11.31488112111024
N         3.88412818762832    2.35990213478989   13.08260850440377
N         1.15218096234513    2.70198246443245   13.50829701605832
N         0.81947854695236    0.74964233328189   11.66673233911691
C         2.45354565649287   -0.41321901158506   10.54761318793174
C         3.35708874403666   -1.26216920020557    9.83940012169054
C         4.63261925636930   -0.86878921794505   10.20089678400699
C         4.49059857978358    0.20306951631035   11.13258151171915
C         5.45276921747302    0.93632802545929   11.81012281808203
H         6.49279160731881    0.71131993103073   11.62692950756063
C         5.15766062667180    1.94764500088774   12.71120229638382
C         6.11823741683725    2.73799036029302   13.40710994666893
C         5.41192725494853    3.62698099635458   14.18824612227465
C         4.03161734632357    3.35207900837948   13.96796375632501
C         2.92033284711150    4.13282339821903   14.62010036274350
C         1.51385893284187    3.65131700708818   14.37764001832172
C         0.36803543526804    4.21777737164980   15.01327158455578
C        -0.72583245925436    3.55492072645936   14.50359726184784
C        -0.23208836888974    2.61354511592656   13.55329627999775
C        -1.02617764796515    1.78013451787082   12.78175440886473
H        -2.09487972032082    1.83504211629686   12.92544870062990
C        -0.52080323466639    0.89280922813181   11.84272336584898
C        -1.19225144702269    0.00319039481299   10.95211813387683
C        -0.21575131506106   -0.67960201492342   10.24869588282553
C         1.03984442943549   -0.20056142340432   10.72864885391189
C         3.17535871135415    4.15047634031733   16.15049787884691
H         2.32583160972795    3.73250255564861   16.68221103444375
H         3.34927553480844    5.15864639509999   16.51758093440220
H         4.03923443980957    3.54115699286556   16.39889663606796
C         2.98181367973696    5.54070269555811   13.97528476885336
H         2.22274367406769    6.19779839045798   14.38754320277461
H         2.80167157046014    5.44075560486697   12.90626592794755
H         3.95688572785855    5.99620749338501   14.11467460886945
C         3.03746617619939   -2.37178719354994    8.89267752089775
H         3.87435224520842   -3.07350698307574    8.87073905464145
H         2.16732004957752   -2.92435466995553    9.25083798234999
C         2.78989040816165   -1.85244020456695    7.47550713066376
H         2.49881233235600   -2.66607293540800    6.81433487577449
H         3.69394840434799   -1.39403106852750    7.08148277785932
H         2.00318612505184   -1.10370455036187    7.47653765619618
C         5.94467294428076   -1.39462318936814    9.72307521322511
H         6.64454538552789   -1.44043613304790   10.56134017300454
H         5.82534353150248   -2.40731625441215    9.33382455574461
C         6.53139739374655   -0.50138197366421    8.62661713537686
H         7.49636830985205   -0.88330308598496    8.29986996694508
H         6.66276242354315    0.51409966532553    8.99327453579868
H         5.86418142324047   -0.46748195104114    7.76867770526757
C         7.60040562034510    2.65212896812550   13.31476291075195
H         7.92081892361636    1.75861736003235   12.78720640271634
H         8.03864591903996    2.64189681276943   14.31234928489901
H         7.99673567817460    3.52242276237695   12.78901565137261
C         6.08461456055069    4.63593415678905   15.06314928488048
H         5.39667501901961    5.33717985271144   15.51866896817395
H         6.81159635489379    5.19759294059459   14.47540580410514
H         6.63180772720105    4.13090106727624   15.86153318312759
C         0.26931847836390    5.30538816678552   16.03698035403408
H         1.20749305060973    5.82096305833253   16.19958168200392
H        -0.05925162894149    4.89390707962930   16.99303264657243
H        -0.47143149719231    6.03957548310508   15.71950910947643
C        -2.16087586468062    3.75806649218758   14.84443778001410
H        -2.62809722914605    2.81117145174805   15.11273282379936
H        -2.70218230943625    4.17161204656366   13.99267848724550
H        -2.26427973195918    4.44187341849859   15.68215200675589
C        -2.67590831730638   -0.10541703475762   10.83246033870192
H        -3.11367260576908   -0.18251847214028   11.83192126500317
H        -2.93739406472976   -1.01095364198506   10.28253156673139
C        -3.27684370780206    1.10995889843575   10.12039391614690
H        -4.35733164609146    1.00726054890815   10.04207268920259
H        -2.86496880370884    1.20877787269274    9.11877721001206
H        -3.05157513324528    2.02306944386904   10.66580358659744
C        -0.48179419809416   -1.67898218886702    9.17017905642670
H        -1.28646567385787   -2.34834505446448    9.48754371057206
H         0.40187403540853   -2.28532918309870    8.99712877813897
C        -0.88665965769345   -0.99916169845403    7.85950015176268
H        -0.96354320931536   -1.73325925545686    7.06005947002228
H        -0.14936090893873   -0.25128702623500    7.57535154354132
H        -1.84752864325841   -0.50296319169958    7.96413340376070

