65
CSD_code = UNETOY | q = 0 | S = 0 | Stoichiometry = C26H21F12NO4W | MND = 5
W         2.41969355897805    6.09876992557727    3.91714507922216
F         4.72178101160002    3.83640843951279    0.72971549381832
F         3.06617641090254    3.72869733825655    2.12400238068846
F         3.52176445418646    5.57621204523186    1.11027882237934
F         6.63543051477465    3.23286615041669    2.41981029975785
F         5.05534233939013    2.74454237738784    3.78356091429645
F         6.60730744788154    4.09724632476986    4.38511780050652
F         2.70720717619000   10.43472829107460    4.76798867961748
F         1.50834555037526    9.75946194420096    6.40692298442201
F         0.61616315016535   10.93153817163694    4.84060454562373
F        -0.65351983976820    8.42110577126124    5.77990635396557
F        -1.20900652418223    8.82316331636106    3.76006600444912
F        -0.37311347495053    6.90444720405444    4.28576282403107
O         4.03885025027235    5.09480379702711    3.93988775422807
O         1.89976281888481    7.63604674862563    4.92773239141324
O         1.38954641933488    5.83879643378273    2.63482148275944
O         0.11064641775946    3.04172384761245    4.50894577391568
N         3.65906582169396    7.49609418777114    3.08690810087358
C         4.94669609620346    4.93635867937766    2.90952008945264
C         5.71054116262616    6.22434465681422    2.63822084295264
C         5.01262937031028    7.44678102256346    2.75136084482011
C         5.74101016626916    8.62884587203834    2.55360006839115
H         5.21977947807304    9.56871726747500    2.65972720672793
C         7.08029523858207    8.60335353934418    2.24015132653374
H         7.61026998770075    9.53336884053048    2.09802158207187
C         7.76252010533873    7.39721309607241    2.10409751896622
C         7.06273034133812    6.21903023641857    2.31516744318654
H         7.59161888457400    5.28540541774336    2.21140921581848
C         4.08549829292710    4.50035557890544    1.68773805763640
C         5.83157255728047    3.74341849725867    3.35649130181683
C         9.22055474503272    7.37231475056952    1.76868722484067
H         9.50866523958019    6.40775460854594    1.36023983459643
H         9.81188826229329    7.55193784168464    2.66652410179808
H         9.46256662247562    8.15004120532828    1.04834468869269
C         1.20857439229936    8.65077440550648    4.29878864601290
C         1.61905877398783    8.86793345431869    2.84087035732082
C         2.82948926166449    8.32635631445531    2.33238558808029
C         3.15653028462210    8.64883198016453    1.00326426534377
H         4.05351901798831    8.22243817765909    0.58115466480273
C         2.36561879620630    9.46641021012902    0.23081513617683
H         2.65609754524941    9.67144884898920   -0.78861398646580
C         1.20787528421022   10.03784784223470    0.74699363714617
C         0.86185885235740    9.73391436299227    2.05412703124282
H        -0.02312641262753   10.19626098267914    2.46151032360904
C         1.49912976658718    9.96024340328328    5.08945680320958
C        -0.28238260020358    8.24068484910698    4.50830429192539
C         0.34212293955104   10.93691764090134   -0.07774572762870
H        -0.09645279911429   11.71969534260749    0.53579095872525
H        -0.47143143245288   10.36254168325116   -0.52006368700466
H         0.91284961115156   11.39206299298277   -0.88263637496465
C         1.70842187171315    4.71960473649664    5.34408074195994
C         0.86663028992763    3.83528382776358    4.92617516498618
C         2.17048262985370    4.90849092478403    6.79218054933694
C         3.53894973572354    5.61793546381000    6.79920102952337
H         3.83915409340638    5.83314834709235    7.82487451054336
H         3.49653988801659    6.57971641826157    6.25371395583081
H         4.30099866813672    4.97607780532800    6.35187771009751
C         2.30113553561623    3.55585982527460    7.50045450428168
H         2.66661386684275    3.69104646962034    8.51657809026164
H         2.99363728292438    2.91380426532450    6.96121844342535
H         1.33628428141242    3.05735825458161    7.54082374000824
C         1.14127974044654    5.78881346689118    7.51661976662909
H         1.43836349421491    5.95127860463264    8.55095425611646
H         0.16451183267327    5.31159195220393    7.50742233770923
H         1.05748545352051    6.75763372144112    7.02224423749116

