64
CSD_code = UNEXUI | q = 0 | S = 0 | Stoichiometry = C29H27N2O4PPd | MND = 4
Pd        2.90933698922747   15.96477204103696    4.17988326334162
P         4.98451700206899   16.98290808333756    3.95084730111547
O         1.19388035130325   13.30606064018330    3.40374738184206
O         2.19894360686784   14.71311213194200    1.92519265555672
O         3.01884564451864   16.57468820671079    0.93463301005818
O         1.06104709188978   19.16416309370842    6.28413307442488
N         2.82546983863588   14.37108440691683    6.85954055349606
N         4.87686796345608   14.76974843516716    6.38395420639395
C         0.88721440036095   15.69967357043778    3.54836285819114
H         0.02079659759960   15.76491347384881    4.19059923233175
C         1.40508539889034   14.44432351904642    3.04391282533288
C         2.33287873154654   16.08446101786016    1.80331238663089
C         1.49417307934058   16.72540023845939    2.81311650574879
H         1.18264761143636   17.75969931679686    2.73238154594747
C         3.63555788475514   14.73698088343677    5.84625919741469
C         1.39679122931998   14.23126043265784    6.74571030366429
H         1.04737868474423   13.55006864801488    7.52627115828861
H         1.17921695257051   13.77575514314280    5.76725533162474
C         0.64435613346813   15.54385949267907    6.83049659996407
C         1.27902682810606   16.76418146792843    6.61194359762468
H         2.36368367781278   16.81069106445803    6.53850877545161
C         0.53319559683132   17.94040596113494    6.55396333462374
C        -0.84288369575711   17.89436097092652    6.78091193403652
H        -1.40310378995527   18.81473031089482    6.74422377988941
C        -1.45802044907276   16.68693096148572    7.03724613154984
H        -2.52280709280245   16.65588811137915    7.21197920354812
C        -0.72551774285512   15.51041557446680    7.04577357984455
H        -1.22005518213395   14.56454935961552    7.20754551650608
C         2.37191047901069   19.22488319993078    5.77188755475981
H         3.12054341013824   19.03824286917645    6.55034538747344
H         2.50219741919436   20.23692529863289    5.39119824003801
H         2.51665450135893   18.50446807505993    4.94452284432917
C         3.53952256626216   14.17042203457795    8.00806815219707
H         3.08093111362426   13.86939760559664    8.92729595290228
C         4.83541321977317   14.41966017125046    7.70887709673412
H         5.71419352305462   14.36924508341334    8.31847942203188
C         6.09238754517493   15.10378398051977    5.68061988339943
H         6.14967697842006   14.50826302058938    4.76209042589075
H         6.93362754993057   14.82950310859737    6.32422395084761
C         6.17610787681045   16.59214275026390    5.32314673704987
H         7.19172191446089   16.83023585444357    4.99613763580619
H         5.92991047153694   17.19530591302087    6.20117259021103
C         5.33597571522160   18.71080286451887    3.52324654735059
C         4.75997544021006   19.15559719644783    2.33187833338358
H         4.19381432550648   18.45775113358296    1.72578113110553
C         4.92499661692424   20.46634799093158    1.93042170245719
H         4.48777116182114   20.80378382373004    1.00265085040608
C         5.64878421638708   21.34805382170743    2.71977587036403
H         5.77674621095656   22.37399676393109    2.40762577385588
C         6.20467687323602   20.91445598708036    3.91115168551427
H         6.76451737406156   21.60232945299967    4.52831007832124
C         6.04852577539988   19.60010428770036    4.31848530486725
H         6.48630431985506   19.27461797787313    5.25066487522624
C         5.77131731934576   16.05622215484001    2.59525938790783
C         6.80541095298941   16.57469626957069    1.82418676243182
H         7.17023805579474   17.57517665761307    2.01218465431583
C         7.34871519968738   15.81441600000927    0.80490246592451
H         8.14490255985953   16.22197550390448    0.19885344767674
C         6.86739774106086   14.54007726863091    0.55153748833686
H         7.28641529505040   13.95758681891579   -0.25574350618621
C         5.84294957877940   14.01663261965076    1.32309391016057
H         5.45878655130220   13.02828036447572    1.12006389117909
C         5.29479891089154   14.77089961717884    2.34391437772383
H         4.47695789473446   14.36282990197664    2.94588384955827

