85
CSD_code = UNIDAX | q = 0 | S = 0 | Stoichiometry = C39H32AgClF3N2O3P3S | MND = 4
Ag        7.27813427789302    8.30780436548759    9.03691339294454
Cl        6.51576452975221    7.60328541190418    4.62562636113136
P         8.68856128433690    6.14502322426928    9.31113833067379
P         7.43052646390833    7.84825481958955    6.45871301353211
P         8.26876108478395   10.53628217574794    8.46705242741169
S         5.26872814093469    7.47419540282459   10.19970103177432
F         4.03443691670684    5.74640094197679   11.79277602552162
F         2.72935664553329    6.64919092461694   10.33465780312367
F         3.37622375690330    7.78376877718325   12.04991320498468
O         6.26934077034046    7.69282543038891   11.22021743681271
O         5.58075754505591    6.38681187984400    9.29545367858764
O         4.84597143279983    8.68569340563034    9.53596063498090
N         8.69657047271145    8.89891363648952    6.05096479545429
N         8.52463213314675    6.56954390456441    6.48127037172981
C         8.60406526727610    5.32873842872456   10.92927202321544
C         9.71571337032935    5.28385279829767   11.76707206458823
C         9.60205493794175    4.75680693691402   13.04092019259677
C         8.37933782942297    4.29174557138840   13.49652098684017
C         7.26374870894893    4.36215641544251   12.67734805014147
C         7.37072480652884    4.88343871973476   11.40157025083317
C        10.45211965065485    5.93868977344525    8.85073314274114
C        11.06653906803871    4.69133785140291    8.83480792811994
C        12.38900715269555    4.57836385497384    8.44725448809714
C        13.10441791644057    5.70472935432013    8.06951640382600
C        12.49428756368718    6.94795933914196    8.07876213316005
C        11.17056553188178    7.06213812278414    8.46661557579596
C         8.05005898803038    4.88998331390876    8.14577550403595
C         7.61659225958138    3.61863582755826    8.49421668461299
C         7.19263762433184    2.73402965008662    7.51694526067109
C         7.20021944047209    3.10933511170510    6.18532199640491
C         7.63614130720478    4.37298813890733    5.82401555771673
C         8.06168332466029    5.26344338802503    6.79769391593771
C         9.51654392110730    6.72977438975590    5.42559087781979
C         9.81653073387579    8.22971348873508    5.38889721334807
C         8.36063014130916   10.22956540903760    5.71241710334197
C         8.26248678763318   10.65672398261491    4.39415870336492
C         7.88025412142403   11.95490653044866    4.10396014787298
C         7.57563424509619   12.83560036472721    5.12758247285985
C         7.66979726903112   12.42210873976454    6.44466590620250
C         8.07995213809019   11.12911050491839    6.75143332815062
C        10.07081348883626   10.65072636705825    8.70789941306983
C        10.96589303821787   11.16997094416396    7.78127893889396
C        12.31939901208266   11.19958015612331    8.07591810180809
C        12.78206042592734   10.72170632395055    9.29040845861068
C        11.89094422551906   10.20161358749091   10.21791152212086
C        10.54202111584735   10.15855861106050    9.92461427281431
C         7.67710227885873   11.95453244585311    9.44216529151580
C         8.46080337570917   13.07186427039290    9.71969813277685
C         7.93429690687479   14.10842557950730   10.46913610518222
C         6.63274175837630   14.03716614152957   10.94115521844373
C         5.85282059429753   12.92444619431777   10.66847692950147
C         6.37213082724683   11.87998880544083    9.92441966588360
C         3.76805360735361    6.88604590595215   11.14095880887207
H        10.66738816174118    5.66381830777866   11.42025861969400
H        10.46925925032530    4.71807405187056   13.68460921554980
H         8.29326155543658    3.88718293761806   14.49450644074722
H         6.30311880173472    4.02258264062505   13.03530507068350
H         6.49785827400315    4.96940619132029   10.77289115482633
H        10.50676600427896    3.81489561644730    9.12984552396687
H        12.86635603254729    3.60941485993397    8.43792618526118
H        14.13713207093489    5.61058205682322    7.76754352543629
H        13.04835269386489    7.82864758430259    7.78676366510916
H        10.66976997676720    8.02171564208201    8.47627268097842
H         7.61250468474374    3.31406540774817    9.52997340489011
H         6.85562396862719    1.74741723679711    7.79818796238069
H         6.86107082378973    2.42247813783759    5.42453011562469
H         7.62927605684194    4.67161490007175    4.78602129286171
H        10.40262624766069    6.14437767174674    5.68166289856501
H         9.13925529997338    6.39698091512441    4.45079436505230
H         9.94981396098192    8.57198457397528    4.35986177282369
H        10.72575800058785    8.46277986650196    5.95302099332148
H         8.45657910689211    9.96339595535112    3.58965368334587
H         7.80233239037322   12.27039807430433    3.07464997386854
H         7.26312284788984   13.84357976194929    4.90145673885806
H         7.43085365607487   13.10853376224057    7.24337254551963
H        10.60663329744824   11.54840822826875    6.83515053522209
H        13.01467385326251   11.60190181991118    7.35342629789601
H        13.83815859392279   10.74977689503145    9.51384197258267
H        12.25276512585559    9.82236472945543   11.16159295099356
H         9.82899414655640    9.72846798665580   10.62266970998568
H         9.47611439341462   13.12403017134907    9.35155335086696
H         8.54143536271297   14.97502706449030   10.68704856784896
H         6.22893761306443   14.84914014231465   11.52776676739115
H         4.84192444368666   12.86662745352431   11.04310822710694
H         5.77559308833684   10.99823371657798    9.71946651030792

