57
CSD_code = UNINEK | q = 0 | S = 0 | Stoichiometry = C21H33NOW | MND = 10
W         9.50010491859671   -0.08970929812469   12.85408642148676
C         6.97184661755493    2.31784349207236   11.87145379033865
H         6.40206297212778    2.54253626025222   10.96676794994103
H         7.35628598117260    3.25592435470166   12.26432736113621
H         6.28027583167422    1.89801308758057   12.60253374430498
C         9.48167550375505    1.70114491748875   11.40682049778828
C        10.12257866117126    0.60674394122579   10.73392083013377
C         9.59654320436961    2.97232201138603   16.28573707880057
H         9.27598479582257    3.82947822227501   15.68738827182714
H        10.40719944759041    3.30637489182325   16.93748852544491
C         6.57366178706724   -0.61363338789829   10.86072346735047
H         5.84684848746007   -0.26076367274642   11.59154657012748
H         6.64884520692266   -1.69730386066045   10.94793890036955
H         6.18254413411252   -0.38712349591635    9.86583566325157
C        10.08687710033213    3.07108584101817   11.54125572693070
H        11.15115985258078    2.99628078876232   11.75875180572526
H         9.61915535531289    3.64187374439199   12.34112422008755
H         9.96516506444679    3.62828377406269   10.60944890112072
C        10.20726665279944   -1.85562748140434   15.63342035881399
H         9.86720486230637   -2.47210488153724   16.46919615641201
H        10.87866288624273   -1.09745299805873   16.03188405471510
H        10.77696087863527   -2.48282624053543   14.95380974795216
O        12.34009246727707   -0.26251428434135   13.59842228974159
C        11.52202954115027    0.62022238057537   10.19108253670970
H        11.55961948401533    1.20353998104032    9.26864941766637
H        11.86257425387390   -0.38949150561160    9.97325086084020
H        12.21384554311782    1.06585180834792   10.90490634510590
C         8.39003556781550   -1.80123849708885   13.85419528247289
N        11.16668931250448   -0.22107442229820   13.41499001982164
C         8.08356648650634    1.36949280991779   11.52953259953152
C         8.42527888014742    2.48123844212942   17.12982231465088
H         8.05080174488602    3.29383592933023   17.75796285871510
H         8.76855346995110    1.68774706858254   17.79600418136036
C         8.99548108880315   -1.23021432135338   14.97761534077767
C         7.90331789340015    0.05768889552077   11.05415391870352
C         9.18354576431942   -2.33907152398134   12.80604008505161
C         7.29270104939215    1.96809833582142   16.24386833813612
H         6.48943565462845    1.56299506023147   16.86570749378041
H         6.88163769441829    2.80998919480724   15.67993018822129
C         9.35573961166789   -1.60282534429067    9.64157133094866
H         9.45985239419258   -1.26592309857505    8.60777039799694
H         8.50668461058438   -2.28109806053247    9.68503346740385
H        10.25606418013636   -2.15620919463500    9.90533254442111
C         8.97107974461561    1.39450879605312   14.43331699352125
C         8.12677048739972   -0.42848172925620   15.92645486818792
H         8.67452881955503   -0.24064985277577   16.84806095555757
H         7.21770442806147   -0.97999548169686   16.18846184773618
C        10.09383419685845    1.85996862812947   15.35637918142627
H        10.47475249813932    1.03935579051278   15.96355023499955
H        10.92375588429524    2.23914294129605   14.75416413962044
C         9.15763883657272   -0.41071870196437   10.53121931173481
C         7.76912725787964    0.90021644391873   15.24770527007516
H        10.08538265161412   -2.88773007063840   13.06408365898594
H         7.31230524769094   -1.68899660050900   13.70814880210889
H         8.63804743984157   -2.81670963903217   11.99739574328869
H         8.62863491954050    2.30916375970735   13.93104442858693
H         6.93708069306379    0.70702605242652   14.55251270808424

