125
CSD_code = UNIPAI | q = 0 | S = 0 | Stoichiometry = C50H71NiP3 | MND = 4
Ni        3.29294296202332    4.67291779544966    4.52441801018090
P         1.89788473031725    5.68525135240291    5.92140572021844
P         5.11286562558903    5.58272760741418    5.40168239050312
P         3.13909659792728    2.26126875269683    4.09600288436828
C         1.78377128606059    0.55048547189068    2.16836839506270
C         4.50282565528265   -0.23638898750703    5.71155836787394
C         2.99838454093416    6.94710886736695    6.74509981242860
H         2.97911028746614    7.82425418099597    6.09841200872411
H         2.58975826464882    7.23624816436459    7.71737830821383
C         4.78220997766898   -0.19830752219135    4.34159218312533
C         4.45011423943609    6.47958104613571    6.90200865676288
H         4.50788953276450    5.76830588550725    7.72532711152996
H         5.08797780521386    7.33239506705345    7.15006922417364
C        -1.14009728993996    3.54503375477338    1.33015942154342
C         2.22924065412442    3.64360232384371    3.29350326464098
H         1.26994281293200    3.86938686212706    2.86753478259076
C         3.54467546531264    3.58719544081580    2.88041021335371
C         3.52535291764136   -1.54566936399251    2.70310852280185
H         4.19914976262612   -2.35960994623633    2.93240257943770
C         6.10801512832447   -0.13968493716604    3.90536631506799
C         2.82502885239413    0.74271261592501    3.08180078508786
C         0.65167119723789    6.81967589447748    5.03771269376110
C         4.35560394417204    3.82710684023961    1.71883684947080
C         6.34053378426262    4.38975034635682    6.22243832428960
C         1.03774922981994    4.80920677641373    7.36810897509809
C         3.93323676068437    4.73617729367405    0.74172395580760
H         2.99922938685160    5.26334697726302    0.88012621102980
C         3.09411887953403   -0.36637464470885    6.20442688629306
H         3.07768139529305   -0.70672701879255    7.23715812171692
H         2.52910227405764   -1.06381815150738    5.58877449010708
H         2.59098405664665    0.60223774387822    6.15851214173254
C         5.56481571862051    3.15539736618005    1.53484985224629
H         5.89186475863060    2.46068411095502    2.29438235710225
C        -0.09958679922383    3.30503547791874    0.44172933270600
H        -0.03071741618844    3.89344993407040   -0.46315615617969
C        -0.37358504643570    0.98270041161624    4.01805063995349
H        -1.27256912555897    1.22991469235063    4.57725233920075
H         0.49344967169017    1.17078671212882    4.65186185651759
H        -0.38286001963218   -0.08123190824031    3.78327369033148
C        -0.28089649720329    1.79709318656321    2.76396871709048
C         2.50792808831227   -1.71848396339041    1.78357447635032
H         2.38253139632084   -2.66657236268809    1.28047911880523
C         3.68522807238722   -0.32989163760995    3.35350910530768
C         0.85519798318165    2.33197254650218    0.69230460005690
C        -0.54213377814090    5.98068422683174    4.57935235920266
H        -1.13486950703538    6.53936812802690    3.85504241130049
H        -1.19361375458442    5.72807129767510    5.41167894597788
H        -0.20294121913004    5.06210010508042    4.10535872052203
C         5.89699750882742    4.27507536160464   -0.55942983528916
H         6.49306000067265    4.44804548315197   -1.44362669134959
C         6.32420552906235    3.37513366882656    0.40406426620205
H         7.25624950002252    2.84381202363142    0.27045252864541
C         6.06515733800631    6.94342062032154    4.47839821828900
C         0.36516053653497    3.56543030452505    6.78354613978982
H         0.05777030646961    2.88884491068717    7.58010092791296
H         1.07549005448240    3.04441415640523    6.14022492284569
H        -0.51044745673942    3.81266826272040    6.19259885516511
C         1.64401441664405   -0.67212381812697    1.52228750304268
H         0.83080869624037   -0.80092870881447    0.82062106779766
C         1.96558829498063    2.08060828887518   -0.28304063702513
H         2.91770762094709    1.97383262783261    0.23382989333265
H         2.04657773887364    2.89639557309236   -0.99751546077300
H         1.78247932853940    1.15740955290793   -0.83363791627429
C         6.86745516257454   -0.06832115331683    6.20129464126347
C         0.14996045490496    8.04046054305413    5.80762266158093
H        -0.42695173158905    8.66891351939100    5.12867837004226
H         0.96694150576683    8.64071178791782    6.19933333821368
H        -0.49794032335271    7.76351629505815    6.63219594795281
C         7.12954518805969   -0.05814031914633    4.84027559777005
H         8.15349547174871    0.00083215595776    4.49622112645797
C         6.45225392779810   -0.20995342224459    2.44570950688863
H         7.35587578961465    0.35908022125371    2.23494402713144
H         5.64093013122937    0.16091104220431    1.82410494895643
H         6.63965725412717   -1.24703510661195    2.16279806277712
C         0.04376570592868    5.63889256378227    8.17237988589712
H        -0.25090332737177    5.08142522140099    9.06172564359656
H        -0.85757800204449    5.84871293632905    7.60382830097785
H         0.48325237194221    6.57925856300296    8.49856512452855
C         0.77624724637633    1.59336926398769    1.87486801915573
C        -1.22393776641534    2.77420705149193    2.48038447044379
H        -2.03656314911763    2.94160059953699    3.17442822911984
C         7.11203829169976    3.68345386760056    5.10946541302551
H         7.64723578712350    2.82329349855916    5.50888099183260
H         7.83729995175143    4.34360655122958    4.63994115753235
H         6.41242050048383    3.32614284813567    4.35521175713782
C         7.30431392352208    4.95944565146376    7.26171678368027
H         7.74056780859522    4.13093243034520    7.81995795773208
H         6.79799604185541    5.60871917356755    7.97184809364568
H         8.11928630967773    5.51192513791757    6.80727532744144
C         5.45424039052524    3.34242705823853    6.90564059011526
H         6.00854813134398    2.41971268351573    7.05856326807421
H         4.59394612491985    3.11136741914395    6.26926830182119
H         5.10245218039409    3.68687947516263    7.87527956111958
C         2.15293988981974    4.32628352017332    8.29594656025386
H         1.75028749697644    3.63657227959273    9.03722063386833
H         2.61916777446082    5.15210179023109    8.82813320757412
H         2.90306689652423    3.79925336893326    7.71130307951501
C         5.54840172043227   -0.16955067743527    6.61917466869402
H         5.32903894999401   -0.20344810595092    7.67786832134472
C         4.70078602102545    4.95430290436471   -0.38321218768990
H         4.36581768963684    5.65776566704462   -1.13294791745899
C         7.34713900676408    7.43948800152090    5.13714536385952
H         7.68550524101336    8.34195648505235    4.62741305816041
H         8.14104554537266    6.70238321790911    5.05962222952394
H         7.19141699856566    7.68584907944617    6.18508105163832
C         6.36341667804708    6.41019671873008    3.07589756734823
H         6.81442611652034    7.18968875100076    2.46240812923057
H         5.43874820335526    6.09151101450288    2.59713091341915
H         7.04008435705508    5.56152137469981    3.09503043428493
C         1.40706461146982    7.29634801681539    3.78823164321874
H         0.71116255240355    7.58820494491365    3.00306764903263
H         2.04400484298981    6.48876843276539    3.39876739891670
H         2.03233392521916    8.15789258523867    4.01198529372701
C         5.09817336688895    8.11755215573056    4.31697464919474
H         5.49300730293204    8.82851643576956    3.59160532134667
H         4.94474229778898    8.64799734927680    5.25402354716847
H         4.14419674399691    7.74944907499459    3.94579935099380
C        -2.15398521756550    4.61061605657565    1.03610790010150
H        -2.79519050672645    4.78580904684166    1.89682417238743
H        -2.78060077505300    4.31291577680738    0.19522496397669
H        -1.66187965298617    5.54468313928222    0.76837126597746
C         7.98620402672503   -0.01169832384683    7.19979381603127
H         8.84372413929596    0.52238188826781    6.79529022299086
H         8.31028853172530   -1.02160219802515    7.45429464279870
H         7.66600121605947    0.47692955102251    8.11810218755110

