51
CSD_code = UNIRAK | q = 0 | S = 0 | Stoichiometry = C24H23CoNOP | MND = 7
Co       10.58461478811854    6.05257749256414   16.32567582064485
P         9.41436850812045    4.58246582548388   17.49799266519177
O        11.55667708971152    3.67571632440055   16.56318038703630
N        11.76789100449772    4.86966985693401   16.17777394584638
C        13.10561185191356    5.05390796958275   15.62220113190203
H        13.76338130893113    4.28784668799208   16.03869729314905
H        13.48919050214989    6.04576601497346   15.84935761171766
H        13.06556940603563    4.92575003090468   14.53807610871762
C         8.69521607699382    3.14132716347746   16.65293112396208
C         7.83492125685905    2.28423866431187   17.33299581444750
H         7.61043813424482    2.46431847900669   18.37602744023275
C         7.26118048880300    1.21413330253044   16.67166223432550
H         6.59899396028144    0.54579177696260   17.20321211159272
C         7.52952952274888    1.00109700587560   15.32875707490194
H         7.07905165978983    0.16412489553606   14.81534365993745
C         8.36644817887655    1.86616507934711   14.64370921530296
H         8.56527656995679    1.70680961953334   13.59384037140379
C         8.94451553277829    2.93580608757721   15.30344531617150
H         9.59567832948140    3.62375075713063   14.77983769291727
C         7.86368876669592    5.19245209326330   18.27439663970317
C         7.71103651860207    5.45814454644622   19.62859832156504
H         8.52577327732783    5.26691620365362   20.31244325824193
C         6.51250404054770    5.95808183633777   20.11043130435314
H         6.40186845619091    6.15705227542081   21.16688637828126
C         5.45927332636132    6.20280256700664   19.24689552913304
H         4.52682022792497    6.59444157762770   19.62629947084869
C         5.60439673030880    5.94392859732079   17.89252761607075
H         4.78464549173274    6.13379248555322   17.21440229629203
C         6.79899055056974    5.44577731625538   17.41177511317616
H         6.92049540031710    5.23968803500687   16.35549272926009
C        10.31524286440722    3.93568148359864   18.94118052530457
C        10.95298214125625    4.88111504033535   19.73983261720518
H        10.88817173307009    5.92853941892203   19.46814142113386
C        11.67361811032430    4.48749682176216   20.85161649727857
H        12.16465767307508    5.22645892824861   21.46864574583318
C        11.77177369419871    3.14191800883778   21.16741708232561
H        12.33587673716641    2.83002610454048   22.03436536926464
C        11.16117651833344    2.19711481265897   20.35978607817106
H        11.25628958722015    1.14658056887806   20.59392207233955
C        10.43674237620916    2.58773073105859   19.24689764172849
H         9.98986358168710    1.84592742953289   18.60317313932856
C         9.77042109761200    7.40763416523093   14.89124558710211
H         9.26387922396119    7.23005560358537   13.95588063010329
C        11.16055971242941    7.61400487881317   15.06261183910689
H        11.89177902176006    7.64560413803005   14.26904620771984
C        11.38692699389245    8.03051624494060   16.40676215304732
H        12.32127408077548    8.39870655359771   16.80148892106039
C        10.14825372557500    8.03494191471845   17.06825585275593
H         9.95577735475535    8.39935668013288   18.06507098967413
C         9.15823328964859    7.62457476731488   16.14115711146063
H         8.09555352577214    7.63707513724577   16.32923684172847

