68
CSD_code = UNIVUK | q = 0 | S = 0 | Stoichiometry = C21H36BF2N3O2P2Pt | MND = 4
Pt       -2.36049518594371    3.51808093172311   10.14143301392024
B        -5.97551890854769    7.04408711781040   10.02018752938274
F        -7.31259235174439    6.68855393041574   10.07355648255540
F        -5.85700311506044    8.41014015786100    9.84754041626189
N        -5.27107056915804    6.61177443575163   11.32603634543661
N        -5.27904283881432    6.29909475749400    8.86266676787521
N        -1.11976317512195    2.09598853942652    9.81534297373274
O        -0.11178355145940    1.94015984256531   10.49818280835219
O        -1.38030483888312    1.36461750965272    8.85777024642753
P        -3.90496761959896    1.85843936512078   10.65561943673330
P        -0.69383705094892    5.09979400707464    9.79887933199529
C        -3.74963807507939    5.01047391844393   10.28904414074370
C        -4.26802189752377    5.66554349072205   11.40975977990075
C        -3.92457083471954    5.52990349131112   12.77151403298533
H        -3.17192853693068    4.86656486723822   13.15457329031568
C        -4.72725682309131    6.39823312379924   13.48385877799188
H        -4.73595946287294    6.55886563149156   14.54429899793341
C        -5.54387238052749    7.04394986190928   12.55425875468477
H        -6.30116056916065    7.78632913580601   12.71925017785407
C        -4.27875268717157    5.37014923175336    9.04147986289882
C        -3.90320290473649    4.89027705057359    7.76798019655741
H        -3.13132026119634    4.15548989634045    7.58596670340151
C        -4.69382699569463    5.54275188590004    6.84069396253136
H        -4.68297234374578    5.42500020344637    5.77467441993572
C        -5.52893339623135    6.40034642481966    7.55818643621840
H        -6.28201587581991    7.07223088601091    7.19365919409782
C        -5.38533599108534    2.43834227024500   11.58796467539828
H        -5.01956817113015    2.97826646304657   12.46517685032209
H        -5.87459951834906    3.17950721596705   10.94994106165230
C        -6.37632913543412    1.36027960078568   12.00675189189155
H        -7.24631010430839    1.82763492051815   12.46351712857200
H        -5.94032596773340    0.68269698061895   12.73690637544207
H        -6.71716763680478    0.77946847379880   11.15305600271008
C        -3.20848506565143    0.49074422620090   11.67203106715436
H        -4.00768258282275   -0.21103121084124   11.92451560096740
H        -2.48332421712846   -0.04046234468656   11.04950257872775
C        -2.52710674459606    1.02437241422646   12.92671460851934
H        -2.11877676483884    0.20584257749956   13.51568655088520
H        -3.22950285056138    1.57769719306729   13.54715839782126
H        -1.70533081358406    1.68559716705549   12.65350096590535
C        -4.57215108798369    0.93493597132097    9.21185364862088
H        -3.70473356116376    0.65192877484094    8.60845093536305
H        -5.04549143078985    0.01745430769941    9.57435698677131
C        -5.54380272614516    1.75772347702188    8.37452314559040
H        -5.80266361223189    1.21698915630252    7.46650854790446
H        -5.09522400039084    2.70764291292980    8.09126533047738
H        -6.46198180295863    1.96458652715648    8.91952184471547
C        -1.16930417488357    6.64724222451181    8.91565154971527
H        -1.56640411660765    6.36520597323777    7.93717642131498
H        -2.00162068441160    7.07224216369934    9.48376213386265
C        -0.06007798222050    7.67971025389341    8.75820823100592
H        -0.46851104749345    8.58164513786977    8.30709132740688
H         0.73519843147697    7.31475129361846    8.11301267340911
H         0.36635014374439    7.94969881896161    9.72131323240826
C         0.87253232265480    4.56076868700082    8.99478575646011
H         1.59646198331562    5.37858693284398    9.04357472635930
H         1.26459961835279    3.72508922785571    9.58022196195321
C         0.63564706354306    4.11949160745501    7.55463352946204
H         1.56120878214530    3.75563511968914    7.11355528798225
H         0.26572792431656    4.94265176673531    6.94618192367931
H        -0.09359790137917    3.31136060645962    7.51686002505079
C        -0.14150133122833    5.70289876420841   11.44666263180219
H         0.83971692136835    6.17689097058291   11.36340298348230
H        -0.86880778160014    6.45013449310417   11.77675695737454
C        -0.10179576813818    4.54428391210658   12.43620729076648
H         0.12932190480705    4.89662621988447   13.43932452665923
H         0.64154339144776    3.80604495554097   12.14453650173923
H        -1.07818166369432    4.05148410151375   12.45086205192340

