66
CSD_code = UNIVOE | q = 0 | S = 0 | Stoichiometry = C21H36BF2IN2P2Pt | MND = 4
Pt        6.74185493484771   11.62998589170704   10.38523146469397
I         6.74232657147696   13.05447694379630    8.16748760581113
N         6.74189223724130    8.30602828341770   13.05294590045798
N         6.74198769101432   10.33797445168610   14.47119061161508
B         6.74196360627191    8.79588737653641   14.51518635906086
F         5.60879827377024    8.34270054434962   15.16497818569336
C         6.74158827692207   10.52644556630444   12.04321683001053
C         6.74172602646881    9.13105788420837   11.94750088315668
C         6.74183188143919    8.30941451766465   10.80288505193496
H         6.74174736362867    8.66088858479455    9.78802737914515
C         6.74179386198416    6.99882495097683   11.23954908272582
H         6.74173291857229    6.11181576389693   10.63689793433462
C         6.74187460088503    7.04168801403524   12.63317877658460
H         6.74186818105148    6.23194328564547   13.33720999790405
C         6.74184140952972   11.09718212053451   13.31876495070980
C         6.74206691091928   12.45325537694636   13.70291968081398
H         6.74202980897111   13.28909157293396   13.02969121645417
C         6.74207482531960   12.48742835664485   15.08369225989236
H         6.74210383821475   13.35553824108539   15.71335615352409
C         6.74206775869869   11.16205159023980   15.51709312507373
H         6.74205508299032   10.77523925855174   16.51799593038038
P         4.43300129652329   11.65108052760272   10.36137358912051
C         3.61790690129408   10.74875004574118   11.75056206184006
H         4.07390758511465    9.75532980587236   11.79474718847631
H         3.91917430949198   11.27126930155931   12.66436743708969
C         2.10183492708171   10.61516257543276   11.69985038083166
H         1.75470757645178   10.14706954768432   12.61880725236861
H         1.78658471775341    9.98888671943445   10.86873025305264
H         1.61290544935656   11.58310490253550   11.61295480514917
C         3.65224894011499   10.98339660014128    8.83543355653603
H         2.57036461729249   10.93928642629831    8.98405396845336
H         3.85453966879207   11.69372645976884    8.02895850582989
C         4.39786773491073   14.20698984396735   11.45627745839930
H         5.46244397026467   14.26768905828923   11.22361965088708
H         4.28243040586439   13.79344882380930   12.45668135494180
H         3.99260438581954   15.21676745860925   11.44982473360106
C         4.22201030785680    9.61935208714061    8.47075049088301
H         3.74388653006843    9.22980335774042    7.57432573749474
H         4.08270687170919    8.90276282651686    9.27867668626729
H         5.28942828450079    9.71409502374182    8.26978642208026
C         3.70207678478281   13.33964274788228   10.41622155520069
H         3.82972942058573   13.78158760403634    9.42408402249951
H         2.63087006029527   13.26258493011326   10.61874399192280
F         7.87516663397376    8.34265462253335   15.16488461009821
P         9.05090025374604   11.65124406058904   10.36145300503265
C         9.86596481499383   10.74887970747185   11.75068097263942
H         9.41000782061150    9.75543974538325   11.79491067198861
H         9.56472387476528   11.27137548701226   12.66450811546301
C        11.38204366727883   10.61531357037319   11.69996908024146
H        11.72917925950510   10.14723663328896   12.61893129072923
H        11.69731041242364    9.98901827452585   10.86887228873434
H        11.87095358160764   11.58326217125393   11.61307925038755
C         9.83150016750751   10.98342626532029    8.83551980875184
H        10.91337886057013   10.93913373525004    8.98409019598093
H         9.62925410093287   11.69385854248799    8.02912601229557
C         9.08603577273721   14.20706005295185   11.45657700497625
H         8.02144188817139   14.26773352535207   11.22399783907985
H         9.20155868925032   13.79344562423059   12.45694426105709
H         9.49127039265491   15.21684854527065   11.45015704498843
C         9.26143729508171    9.61950597964292    8.47083440148353
H         9.73931003144861    9.22996694738553    7.57427156340620
H         9.40078229816489    8.90282202974232    9.27866984404854
H         8.19398696576272    9.71445947708607    8.27011142326609
C         9.78176683603230   13.33981035978227   10.41639914963575
H         9.65397512468972   13.78175437715988    9.42428337592403
H        10.85299445194793   13.26274501603016   10.61879830688825

