100
CSD_code = UNIZIA | q = 0 | S = 0 | Stoichiometry = C47H46N2NiO2P2 | MND = 4
Ni        7.31718043909873    0.22120090715183    3.52694671509003
P         5.66259227162031    1.55694535407768    3.30620636628161
P         5.85261857466410   -1.20980797551589    4.31865012115918
O         8.88751057203429   -0.66813081407001    4.04493368387488
O        11.08624433505362   -0.79091836983225    3.89917461162231
N         3.05744989320987    1.49569619121258    3.87404662516351
N         3.73576165623878   -0.44686772579564    6.03423048536655
C         8.51967053735242    1.32740127217905    2.48023632130987
H         8.41565775935650    0.83500308913891    1.49446058871395
H         8.26468382987681    2.38997218953481    2.35790679994068
C         9.94854750782395    1.16176740251457    3.00188462902181
H        10.68599895970709    1.24938823716304    2.19882624258690
H        10.18252925703253    1.91770049729940    3.75638066225746
C        10.04349085414144   -0.20977436630126    3.68661149757074
C         4.13919544951506    0.88049458411450    4.09333789096450
C         4.41173560159939   -0.26491621360485    4.98182476486007
C         1.82915387455810    1.26381895303854    4.46527284033939
C         1.57051119476404    1.55662160286480    5.80984361422816
C         0.28667129600090    1.35190410469792    6.29856224556702
H         0.09465768720879    1.57340144550295    7.33919375302617
C        -0.73938396107772    0.87127733539500    5.50335594905291
C        -0.47437097919965    0.64199267574517    4.15757674752849
H        -1.27047784280341    0.29892033897397    3.51163260226682
C         0.78092846467263    0.85411367406938    3.62318403106794
C         2.60418326088121    2.13879979880121    6.72711882941131
H         3.50252171053626    2.43019699468917    6.18995499964798
H         2.88061458187086    1.41214704465652    7.48993390616293
H         2.20055201302222    3.01792233942314    7.22825647219935
C        -2.11168992044532    0.63313366887702    6.05589474600304
H        -2.46037620482660   -0.36505537440306    5.79548897997294
H        -2.81719884816743    1.35099253270098    5.63759759201626
H        -2.11804844582494    0.73491180998788    7.13802280275802
C         1.05226348723289    0.63277204466981    2.16639940065144
H         0.12329359589450    0.48981682992359    1.62002996217084
H         1.68194730565420   -0.24352400434062    2.01606996782820
H         1.58390572652530    1.49087749365474    1.75664986299677
C         4.05389050117239   -1.33540751096788    7.03281392866753
C         5.30063971012245   -1.28606789536307    7.68326290808118
C         5.54413613476171   -2.19700823447801    8.69650556630139
H         6.50343539057481   -2.17559864445616    9.19381096316632
C         4.60243017701707   -3.14030637330738    9.08465992055233
C         3.35309182124724   -3.11587110234816    8.48119139017731
H         2.59307797659259   -3.81643380788515    8.79756986062434
C         3.05433937621408   -2.21236009065911    7.47783626833766
C         6.32036755163113   -0.23236108824655    7.36498285703116
H         6.99342713517990   -0.54357331834190    6.55770389849751
H         6.93668067489778   -0.03830753794948    8.24047544056915
H         5.84126019582401    0.70092870533989    7.06532511267480
C         4.93915570304706   -4.15222548180294   10.13588910440641
H         4.05431882407980   -4.70094409802748   10.44825459963801
H         5.38078459610913   -3.67164980680148   11.00708969519795
H         5.66671842271247   -4.86317946992036    9.74378615511498
C         1.71329845115591   -2.20830446993410    6.80878867955468
H         0.94521504899124   -2.56655473890055    7.49001106271065
H         1.71713505039676   -2.86232719885127    5.93511907575119
H         1.46103819148817   -1.20396647598460    6.47297650832502
C         5.92271266067639    2.88727283448970    4.52029019757468
C         7.03470158722458    2.77774313890411    5.34906466063260
H         7.72447605400873    1.94205601666759    5.20181667070318
C         7.25676561599443    3.72058615012206    6.33645002188330
H         8.11911087932554    3.63645971324197    6.98069849690722
C         6.36841152337341    4.77223509178450    6.49427591518258
H         6.54067262595614    5.51187611296207    7.26200271445551
C         5.25508587538644    4.87786832128183    5.67345378835643
H         4.56245898923021    5.69590361801208    5.80621526107710
C         5.02200251186795    3.93410356540376    4.68972765826113
H         4.14695407488174    3.99522072067506    4.05746237352217
C         5.04340725377091    2.37381063941090    1.81577647589703
C         4.27902039387335    1.62596939423905    0.92461048721804
H         4.01967477193983    0.60608575075916    1.17168294729597
C         3.85817916476196    2.18605800314087   -0.26632585936630
H         3.25584632853107    1.60633509290847   -0.95046346340713
C         4.21439151794857    3.48720072060940   -0.58449928405152
H         3.88533804938633    3.92470557497951   -1.51531360053379
C         5.00224507894615    4.22307670257303    0.28541244660600
H         5.29170125858829    5.23189965255276    0.03011415100257
C         5.42461271036053    3.66853054467682    1.48023992228057
H         6.04669669785155    4.23947984388312    2.15572566589959
C         5.98200906522622   -2.81467488775592    5.16293061242470
C         4.91186702585628   -3.68836270431103    5.32128289682281
H         3.93877016813942   -3.43605672896410    4.92730576906171
C         5.09637529186746   -4.88070357621319    5.99312638284368
H         4.26215275263907   -5.55314041201405    6.13022335545003
C         6.34661311526597   -5.21559770019413    6.48987547709481
H         6.48172712326480   -6.14946486855469    7.01591165967981
C         7.42198701305481   -4.36503585874149    6.29838771925471
H         8.40083135474149   -4.63549171742566    6.66525771281907
C         7.24473618031501   -3.16562497121428    5.63293304022050
H         8.08075470223594   -2.50075568515924    5.45765227011502
C         5.08983266813560   -1.68337767766089    2.72458118137660
C         3.74570655511443   -1.99837824018718    2.55705059485745
H         3.06417442475615   -1.94899841211723    3.39647697816213
C         3.27647181911756   -2.35593410372772    1.30429022185962
H         2.23385578537132   -2.60954987500448    1.17374649445805
C         4.13580773587086   -2.38695167004446    0.21759900838126
H         3.75911012628406   -2.66141527103456   -0.75653271174634
C         5.47400378673784   -2.06266970395525    0.37763037071886
H         6.14133652796327   -2.08112568641256   -0.47102019137985
C         5.94937266245238   -1.71580762979197    1.62828557467593
H         7.00137206373923   -1.46583675218924    1.77853762946350

