99
CSD_code = UNIZAS | q = 0 | S = 0 | Stoichiometry = C46H46Cl2N2P2Pt | MND = 4
Pt        8.02422081528515    3.17547195972199   15.73191779164676
Cl        6.15174535415809    2.85778163611485   14.46518872347754
Cl        9.45793927811542    2.42440832164847   14.10618797734127
P         6.72948026500928    3.88133492921294   17.44422834049449
P         9.80733328935258    3.34225343701690   17.10767139837870
N         7.35117752919706    4.84186446674904   19.99384556111396
N         9.97788723421000    4.07757533102608   19.80783571712130
H        10.90996830348464    3.69088720688057   19.73104140370512
C         7.87022066019355    4.34965197277588   18.77670379366268
C         9.17458978353745    4.00333356775103   18.68133101538363
C         7.96218822599553    4.20702027709534   21.11055780211296
C         9.32179582145868    3.87683514264293   21.02702110380427
C         9.94548470430362    3.30586874569807   22.12159777000610
H        10.99887844990870    3.07020527480661   22.07107343804706
C         9.22599311204664    3.03715565651535   23.27561903573199
H         9.75471284587291    2.60937097053138   24.11044143807626
C         7.86062367793100    3.27344620241333   23.34454165010552
C         7.24273825798270    3.84933010020984   22.23399951649426
H         6.17886973514866    4.02147269169134   22.23209102319052
C         7.01409331126127    2.92223831390061   24.55750673797278
C         6.29168749559868    4.18162729410421   25.05652691062346
H         5.73140675342453    3.95664404849210   25.96130411866818
H         5.59402234837644    4.56194804292325   24.31584162161343
H         7.01276212746042    4.96432902912316   25.28306994235710
C         5.98511889792210    1.85892349702037   24.14697783282936
H         6.49254386651604    0.96111438220081   23.80005628716045
H         5.34192229770520    2.21645575574945   23.34734784674101
H         5.36010692045884    1.59517049476814   24.99725391940287
C         7.84803650682835    2.36375673208611   25.71340352290323
H         8.34929539725995    1.44232948382301   25.42686595004053
H         7.19628561280226    2.14138819760951   26.55564387462941
H         8.59005169644069    3.08675389075226   26.04404917382383
C         6.97487016546392    6.19194339791570   20.04424736414592
C         7.22190425249939    7.02879605755138   18.95674874703095
H         7.77549835605256    6.65565217708503   18.10589658009884
C         6.77308123664806    8.33123564131440   18.95154082680182
H         6.97938555112477    8.93347040514780   18.07995270160170
C         6.08410004210762    8.87336720595074   20.03300892317605
C         5.89636056536028    8.05013912691900   21.13548098544347
H         5.39714378574674    8.41922588809227   22.01663155053639
C         6.32851699307677    6.73667497984844   21.14784157403925
H         6.16732842273123    6.14327440559701   22.03256608317357
C         5.59361770543819   10.31023963466347   19.97006396046740
C         4.63987193023410   10.45841592369120   18.77668946261107
H         5.13354178167834   10.20633914992764   17.84248129989552
H         4.27924788676308   11.48275665400084   18.70913153578925
H         3.78512270739962    9.79666128992661   18.89827732635364
C         4.84252457095675   10.73299977918042   21.23542137590478
H         3.97110998038453   10.10368933789806   21.40092515430543
H         4.49988209863221   11.76015062259695   21.12758499233860
H         5.48831168605852   10.68520369228451   22.10914877640742
C         6.79802481960975   11.24526081915105   19.79218704189809
H         7.33043002098507   11.03190782714326   18.86960362301786
H         7.49187393623625   11.12629316243521   20.62192454659208
H         6.46800841983332   12.28158486677818   19.76377766453168
C        11.29321102726312    4.31657143896806   16.78213442213206
C        11.49255970043471    5.57687864018087   17.33814393800788
H        10.77214350971818    5.98298705640859   18.03500695981932
C        12.61600624640110    6.30612646145196   16.99157531709360
H        12.77641508881223    7.28176821860533   17.42656962564570
C        13.52818813987427    5.79203263253028   16.08406433374379
H        14.40127597513942    6.36784978537958   15.81497703529266
C        13.31619106335059    4.54738458610714   15.51026710271503
H        14.01909616215690    4.15669965771469   14.78990065069823
C        12.19950265886857    3.80912417639142   15.85223851143927
H        12.00263276654777    2.84910733371832   15.39507556314367
C        10.40737931263790    1.71689653858497   17.64190950893549
C         9.50681779123302    0.66167386118012   17.52720949388128
H         8.53910895692117    0.84438996027210   17.06229206412461
C         9.85688391461770   -0.59780554432642   17.97391264869112
H         9.16234794955763   -1.41845053818666   17.87582344855960
C        11.10554326876661   -0.80580020649219   18.54015825764277
H        11.38358249533842   -1.79046708169338   18.88530518102893
C        12.00422550698347    0.24260820190859   18.65446353138375
H        12.97938567602015    0.07400041610025   19.08768723207486
C        11.66000707126757    1.50679643177695   18.20883688660940
H        12.37105888587200    2.32043358143969   18.27571781239084
C         5.57865887767747    5.25538501017903   17.19961988097737
C         5.76338845508292    6.04613812237605   16.07139643779066
H         6.54788763834190    5.78414591390960   15.36902211249103
C         4.94014143199914    7.13484944832712   15.85251573562078
H         5.07622762164230    7.74777849469212   14.97389360449650
C         3.93709057289245    7.43371398725394   16.76003927692802
H         3.29230606167468    8.28301424160264   16.58843114052375
C         3.75055331785581    6.64222201943076   17.88279401097635
H         2.96475932389485    6.87740389541120   18.58558413063183
C         4.56506636553169    5.54877839744520   18.10582614636884
H         4.42273167599023    4.92539785437510   18.97744242973980
C         5.71279759962139    2.60078807112853   18.22728099775697
C         4.48221886702522    2.31004309694721   17.64125643994892
H         4.16276415498266    2.87490072664805   16.77632618043621
C         3.69757840775919    1.29493568102074   18.15411054168306
H         2.74513939500589    1.06933031583180   17.69814719446899
C         4.13430100854202    0.56383669463082   19.24841188615447
H         3.51737357576511   -0.22575770192882   19.65140479958398
C         5.36723746936992    0.83639498420595   19.81798209598360
H         5.71455507860569    0.25955134342325   20.66289904362641
C         6.16339543030154    1.84431869346349   19.30430410359067
H         7.13262701238601    2.04069600369032   19.74226795009720

