44
CSD_code = UNOGAG | q = 0 | S = 0 | Stoichiometry = C19H18Br2N2NiO2 | MND = 4
C         0.67335248824332    4.53484168135770    1.80338879342651
H         0.75510767492054    5.09292967383218    0.87357287051702
H         1.56698574412643    3.92460515289881    1.91662808664244
H         0.63216244434893    5.24699860687010    2.62423914279436
C        -0.58020196918897    3.65777460348281    1.79217069346633
C        -0.54833312900407    2.77489555534633    0.52578024413290
H        -0.90776647765191    3.36872284909289   -0.32462475700937
H         0.49047864466235    2.48966305983453    0.32220236165099
C        -2.33597018872849    1.40086790214466   -0.14098169235879
H        -2.61896151680400    2.23561291990470   -0.78724041553922
C        -3.09858756672749    0.21439231531099   -0.29670010573618
C        -4.25187960265454    0.22343536634759   -1.10028601095655
H        -4.58491364099367    1.15304426392836   -1.53863276419588
C        -4.94805680278080   -0.93407121456719   -1.31519895604840
C        -4.52058185486270   -2.14636024439574   -0.75957076219978
H        -5.08384525070749   -3.04751556056111   -0.95063593677821
C        -3.39615621759247   -2.18187318715773    0.01429433944953
H        -3.04999931669383   -3.10598799505554    0.44955238376732
C        -2.64105019166343   -1.00787479233651    0.29272008192162
N        -1.32200705811263    1.55107587996854    0.64630183774475
O        -1.59570784742185   -1.09587911310502    1.01878502005700
Ni       -0.58020755718583    0.24901370058092    1.79216974297405
Br       -6.52065397822560   -0.90918761408902   -2.39542076518629
C        -1.83374893449620    4.53485237516550    1.78095102185683
H        -1.91550018419171    5.09294197711819    2.71076635184000
H        -2.72738720644090    3.92462323028437    1.66771174254486
H        -1.79255221371981    5.24700819990496    0.96010005486368
C        -0.61207537662145    2.77489911193437    3.05856320313166
H        -0.25263776080970    3.36872710089397    3.90896607042484
H        -1.65088804530646    2.48967184226239    3.26214361139652
C         1.17555715168373    1.40086442721531    3.72532333385902
H         1.45855398203305    2.23560934807237    4.37157993566411
C         1.93817602198902    0.21438922697673    3.88103559532316
C         3.09147129633167    0.22343116862775    4.68461703376693
H         3.42450663918756    1.15303939420496    5.12296420973668
C         3.78765294533141   -0.93407450002371    4.89952029191688
C         3.36017808759993   -2.14636224825208    4.34388898624690
H         3.92344521078090   -3.04751689555361    4.53494620130472
C         2.23574971564803   -2.18187409844369    3.57002787726748
H         1.88959408491848   -3.10598726946234    3.13476535469295
C         1.48064050923868   -1.00787586192108    3.29161029759310
N         0.16159298712893    1.55107588257683    2.93804145821629
O         0.43529964331687   -1.09587730353670    2.56554312742159
Br        5.36026461709601   -0.90918891767775    5.97972080839607

