93
CSD_code = UNOLOZ | q = 1 | S = 0 | Stoichiometry = C36H54AgP2(1+) | MND = 2
C        -0.56462432016727    7.15687133834576    4.48145634392987
C        -1.54998883318585    7.72779994522866    5.28272878747595
H        -1.27614162957418    8.53289115150621    5.96328705691580
C        -2.85648236592727    7.28230475898140    5.21590156810387
H        -3.61391072662339    7.72819672372568    5.84246983095271
C        -3.19002995647594    6.26418260702623    4.33710553795134
H        -4.20903584753548    5.91448262956321    4.27931474250245
C        -2.21774554018165    5.69938681678034    3.52695543884457
H        -2.48089188382290    4.91088059727185    2.83839727998880
C        -0.90804357386212    6.13954121010773    3.59545958929189
H        -0.16057088887446    5.69376198170722    2.95619732294058
C         1.88985270291505    7.71866640604241    3.00754201443949
H         1.84494562118558    6.70283817184734    2.60021832807360
C         1.09739399207315    8.67591517883728    2.11443498925769
H         0.06528553267712    8.32942610869983    2.01574386066706
H         1.07020176550718    9.66543792771333    2.59825483971054
C         1.74115856544716    8.80570915649933    0.73834975384294
H         1.71783158024159    7.83622408229654    0.23629846728321
H         1.16907703621025    9.50866070291390    0.13099337535371
C         3.18631625788144    9.27617756617801    0.86687337786458
H         3.64197409998800    9.34933927676366   -0.12090138273802
H         3.20794811385108   10.27053357100890    1.32000178777657
C         3.98125129034829    8.30454673155632    1.73267746614103
H         5.01114509986172    8.64982008753923    1.83554971139739
H         4.00492098787296    7.32509865420871    1.25017223115046
C         3.34764294248205    8.16866873697674    3.11406610056119
H         3.92187667425346    7.45574593904653    3.70997400036636
H         3.38076387094444    9.14248769832816    3.62785569983492
C         1.96037900306822    6.49546937785418    5.72180198402597
H         3.02055542397784    6.78346078891004    5.76034344715157
C         1.84398848410173    5.06950609332415    5.19118565784119
H         0.79084118143611    4.78421955271218    5.13511264813337
H         2.27572218792597    4.99536118734070    4.19064009692997
C         2.57256997457439    4.11088569951421    6.13216518320499
H         2.47643085927018    3.09119685907540    5.75685241786899
H         3.63610616918744    4.35967645437116    6.15447250403923
C         1.99934210401221    4.20158221130901    7.54300179664656
H         0.95107893983571    3.89531845098674    7.52971824275321
H         2.53761679948853    3.52249905729168    8.20488626121318
C         2.10392957681112    5.62903382973585    8.07209283572350
H         3.15589397071943    5.91435415367742    8.14565631080952
H         1.66941015608840    5.69011360820077    9.07107421587799
C         1.38077126337453    6.59072558624776    7.13490060275022
H         1.47639319407914    7.62307990298803    7.50485292886123
H         0.31651339703182    6.33928978870825    7.10724751689273
C         0.57124033837241   13.55505086224092    5.66738048209265
C         0.09385779351473   14.75226947511926    6.19365333528282
H         0.10817127248300   14.92675881789102    7.25926484353015
C        -0.40966095271563   15.72369088006301    5.34729609314344
H        -0.77948357960325   16.65077230704035    5.75824224681606
C        -0.44015881712369   15.51217580622587    3.97793110302100
H        -0.83260483249017   16.27521066739305    3.32386511645194
C         0.02559072669909   14.31934717663214    3.44852043630114
H        -0.00464122970683   14.15033674983889    2.38288122566570
C         0.52462574777098   13.34460674772249    4.29176011356299
H         0.88598746218130   12.39980232591618    3.88892317873539
C         0.32003804103275   12.22287604016507    8.25095362408635
H         0.36096205541237   13.20123652385488    8.74142969030676
C        -1.12573475699176   11.88045558988826    7.88420024158278
H        -1.55052500507041   12.66915385324141    7.25797923676633
H        -1.12500306869690   10.95118006482351    7.29121883059678
C        -1.98194191022686   11.68133166098666    9.12985270269152
H        -2.02990356145146   12.61836604872354    9.68844632922068
H        -2.99889702746341   11.41654986367188    8.83655714876446
C        -1.38888923616664   10.59175663075695   10.01699313412755
H        -2.00074981046912   10.46632823921003   10.91057339524030
H        -1.38587588411340    9.64145704135178    9.47671714491985
C         0.03764351772182   10.95683875670444   10.41303090848396
H         0.46636953509236   10.17231706865542   11.03850826269826
H         0.02686174038807   11.87972445768906   10.99669477636387
C         0.90703656464738   11.15480970427378    9.17516549096744
H         0.97007615113617   10.20446936149186    8.61970396919083
H         1.91852823761416   11.43226396031320    9.47987579836486
C         2.98987657546268   12.83871846313986    7.08297304763028
H         3.40398415472022   12.11354414798956    7.79795272032466
C         3.04563424633222   14.23629426658913    7.69301983564133
H         2.62061326061097   14.95907145117402    6.99265286280029
H         2.47010999047461   14.27401947882592    8.62060038399310
C         4.49851611388133   14.61320059869258    7.97970507597714
H         4.91587001329929   13.92309682807219    8.71666561353165
H         4.53578423682959   15.61725618035669    8.40443630682639
C         5.33065809159593   14.55781724501667    6.70232838455193
H         4.94883879258903   15.29043393412456    5.98796016022141
H         6.36645550041262   14.81614375229720    6.92459405930048
C         5.26758825501657   13.16470906563231    6.08283162424721
H         5.70778725044048   12.43956945951362    6.77123970635883
H         5.84456776570532   13.14105107840081    5.15711192410317
C         3.81915241288062   12.78077689839558    5.79810154770624
H         3.77311724821484   11.76684395494336    5.37310967249693
H         3.39741532889502   13.47339788704801    5.06386476459094
P         1.12479059902668    7.78891255869820    4.68662536266024
P         1.28653042799528   12.22678941405109    6.67615751973470
Ag        1.20242697135282   10.02974829620237    5.63326779772478

