51
CSD_code = UNONIV | q = 0 | S = 0 | Stoichiometry = C14H32Cl2NiP2 | MND = 4
C         1.59259467637783    7.77750768979142    6.58046757556915
H         1.76826673236139    6.71286067295558    6.78972227694000
C         2.52636913738063    8.23741241427414    5.46315600754390
H         2.28962587941354    9.26628450058166    5.19426208239656
H         2.42985368910217    7.61271941600162    4.57734927423604
H         3.56299689748632    8.19863132537148    5.79228748436520
C         1.84742035038766    8.60011888248662    7.83891339436285
H         2.91323461228604    8.59624808591331    8.06187284504384
H         1.32474620060319    8.19580295568351    8.70205362977190
H         1.53380045462639    9.62936165416838    7.67892894469098
C        -1.20519597200681    7.85614667354836    7.49271254916357
H        -0.80346413488987    8.68106138415118    8.09287634401196
C        -1.11928893083064    6.55388664813680    8.27988201658745
H        -1.59602633937033    6.68226611500647    9.25038556472883
H        -0.08697413487193    6.25320101161131    8.44650553530925
H        -1.63686078550534    5.74833487175392    7.76188905098098
C        -2.64775576349169    8.20716845091524    7.13666841609908
H        -3.14426654406557    7.37028717225950    6.64897573153743
H        -2.66624092991897    9.07405366952377    6.46226955439769
H        -3.21347985365236    8.46346653627980    8.03039465028233
C        -0.35010142583088    6.24579019582319    5.11641970994220
H         0.57148948687564    6.09192337816604    4.54816372242121
H        -0.42070170104372    5.44310674233982    5.85350330918630
Cl       -1.79827816778327   10.74784582244624    3.27713395643701
Ni       -0.94869574229789    9.38465817733724    4.64474295845779
P        -0.15882483948279    7.90568009697636    5.95750708307044
C        -3.48996139332536    7.77760994108092    2.70917147196232
H        -3.66570838187900    6.71306056320047    2.49949333991013
C        -4.42382459818441    8.23715128792826    3.82656492363577
H        -4.18718019789957    9.26596028530605    4.09579293297324
H        -4.32723515685139    7.61219473761957    4.71216684916168
H        -5.46047212591778    8.19836642663927    3.49748256287688
C        -3.74479436167046    8.60079503248919    1.45109535923101
H        -4.81066826056709    8.59761346039737    1.22841066865610
H        -3.22261510462021    8.19640938850521    0.58770398666842
H        -3.43053553167507    9.62981989140106    1.61128145291083
C        -0.69230099017038    7.85587008145094    1.79677276629932
H        -1.09438649904992    8.68045861214215    1.19640791951450
C        -0.77797539294377    6.55324962376569    1.01017155921538
H        -0.30162423690302    6.68149376481533    0.03946642208713
H        -1.81023446019483    6.25209872932907    0.84399214670383
H        -0.25987806544566    5.74810016878904    1.52827907386611
C         0.75014266058724    8.20753936268650    2.15262518852946
H         1.24708468499361    7.37096358435503    2.64040369893748
H         0.76843234430510    9.07458950659050    2.82682297675718
H         1.31555260275975    8.46385271664921    1.25870706476185
C        -1.54742730976121    6.24570816411496    4.17322252191033
H        -2.46903505809761    6.09193089143080    4.74146086938605
H        -1.47686194508056    5.44297496989052    3.43618784106864
Cl       -0.09923706159438   10.74768204485320    6.01258430503086
P        -1.73849901267510    7.90558222107367    3.33208843040792

