31
CSD_code = UNOPUK | q = 0 | S = 0 | Stoichiometry = C14H12Cl2PdS2 | MND = 4
Pd        4.16279893551240    1.84988901256641    5.48099114013657
Cl        5.72682357776693    2.71478427235826    6.81734092313907
Cl        3.21999582545120    0.80200669742088    7.21107516636350
S         2.36729561380325    1.19574616649920    4.11213792882894
C         2.93237213497985    1.69179839537655    2.48241737369291
C         4.02923381082033    2.52952096407534    2.31064315768293
S         4.95666120355130    3.17165435720091    3.70684854741338
C         3.80992993590326    4.56885585191540    4.22521513715005
H         3.59708633702750    4.41353093374106    5.29320922048534
H         4.41368312313716    5.46911410775127    4.11522561720899
C         2.59265227694281    4.63921073571065    3.36681059730036
C         2.58132057518144    5.55761861375052    2.32078213247108
H         3.43423038035627    6.20634585063213    2.18645662726285
C         1.50710971631320    5.65446005418526    1.45796403424845
H         1.52334647743735    6.37576693461240    0.65586225669652
C         0.41503730733184    4.82177654874640    1.62933199218059
H        -0.43058198163903    4.88588262386361    0.96235901324284
C         0.41234150901540    3.90336385963860    2.66089844132742
H        -0.43900412068215    3.25220668028608    2.79413794167315
C         1.48615938686718    3.79498318177661    3.54021204827196
C         1.42270927907105    2.74706336432236    4.59914343911525
H         0.39859329168803    2.40510840998976    4.74461201970183
H         1.83118803198438    3.06496304044703    5.56969072878478
C         2.25451205871747    1.20591515726395    1.37517825269768
H         1.41008580763520    0.55126719566180    1.52451686522073
C         2.66822657540953    1.55441392309733    0.10116015390058
H         2.13884758491742    1.16970524061367   -0.75650897821297
C         3.76016194723874    2.38935334391550   -0.06983179850819
H         4.08746844147889    2.65929034107499   -1.06178270171641
C         4.44012024388482    2.87628965874572    1.03297815667294
H         5.29679471289005    3.52141448275804    0.91572456556879

