60
CSD_code = UNOREV | q = 0 | S = 0 | Stoichiometry = C31H23BrNNiOPS | MND = 4
Ni        6.74658486600780    1.80226759060698   19.82836158301915
Br        9.36248332494905   -1.33837554539204   25.94996707604402
P         7.55459495751317    1.22330154182594   17.90925737586742
S         5.21441288657806    3.01084230440603   18.96444636490143
O         8.15236223002007    0.73192147511587   20.46077975299650
N         6.13253684837382    2.27908622279863   21.59174899635081
C         8.39247563736551    0.34074637255353   21.65639282772901
C         7.61375545933516    0.74609872754863   22.78501630729253
C         7.92066854427570    0.22662605067169   24.05676485138609
H         7.32553329317936    0.52624711656612   24.90743176723621
C         8.96305080675653   -0.64405060209353   24.21647969992139
C         9.75054400767393   -1.03877619280190   23.12960881833510
H        10.57021125549648   -1.72448427916793   23.28290148345236
C         9.46968762970425   -0.55506805623405   21.88295522512268
H        10.05787387152622   -0.84790440113625   21.02633909133936
C         6.54526026925705    1.67357732667818   22.67079746952812
H         6.04018023695595    1.88835531756965   23.61129177011610
C         5.12081342898429    3.24502976110943   21.66662751940347
C         4.56450246218833    3.65647814785230   20.44289960505784
C         3.52567098412331    4.58391020114129   20.41279927646873
H         3.11241193339024    4.86751248999607   19.45728019612417
C         3.06098705687296    5.13348061348313   21.58691433121457
H         2.26127447776100    5.85828673631558   21.56493449804882
C         3.63835226060840    4.77179381039445   22.79912619171515
H         3.29461871544283    5.22542223373388   23.71644511948416
C         4.65556321888884    3.84178246991560   22.84289628439895
H         5.09848387341820    3.60859784452992   23.79920034649402
C         6.95324238963059    1.92021964984511   16.33816823810425
C         5.68170816125722    1.53094010790087   15.92525085670886
H         5.11537194606535    0.84577746845040   16.54228887515652
C         5.15299781207406    2.02261700163313   14.74821348209863
H         4.16648351373243    1.71932803216459   14.43056409010485
C         5.88800688330747    2.91174733268286   13.97915812512055
H         5.47494348021265    3.29945006533629   13.05971479552256
C         7.14829377043935    3.30910531692824   14.39234930307718
H         7.71805649577880    4.00608730318344   13.79517138682811
C         7.68282666753133    2.81960735178863   15.57187443018476
H         8.66520333507027    3.13424808614488   15.89501186246947
C         9.27883507903490    1.79787007285706   18.00222838416721
C         9.45469902612691    3.03472260508992   18.61980910737884
H         8.57785025028169    3.55962819009279   18.99845303965639
C        10.71968223043942    3.57100358383313   18.75919211274721
H        10.85409329893033    4.52924931193746   19.23907864576897
C        11.81875792745191    2.86815235940602   18.28852431920984
H        12.81049126115083    3.28092967345948   18.40016993475969
C        11.64826135371029    1.63209547418013   17.68796657860525
H        12.50804575898341    1.08178777202844   17.33430310084689
C        10.38100744870450    1.09129584749345   17.54374558577235
H        10.25421719973869    0.11995740752048   17.08812193051970
C         7.64696747972103   -0.54423480566412   17.49264099612764
C         8.07324610625960   -0.94845100753062   16.23003342755195
H         8.32871199347841   -0.20696419847906   15.48524257871115
C         8.15555663769279   -2.29577764402983   15.93031183985481
H         8.49068747178271   -2.60892022672803   14.95223471796802
C         7.80627560247624   -3.24373710451314   16.87977688906332
H         7.87309615925055   -4.29481915157558   16.64090592698961
C         7.36262832761659   -2.84387578761216   18.12931753079758
H         7.07881099669565   -3.58213626993624   18.86478553532988
C         7.27924631606312   -1.49685243219372   18.43413652077597
H         6.92760308270166   -1.17075666369040   19.40389202299249

