50
CSD_code = UNORIZ | q = 0 | S = 0 | Stoichiometry = C20H19N3NiO7 | MND = 6
Ni        6.97251962072695    9.63459689442978    7.09272882160631
O         9.83471968462742    7.00765308436705    5.94044079123669
O        11.08870450807210    7.16154823450697    4.08498188611982
O        10.57856212525479   12.44331138634427    3.55825821394155
O         8.46060604090063   13.10604981680924    3.19155425199720
O         7.27701387517334    9.54082227379256    9.53037762647226
H         7.77511974250941    8.72674245832587    9.37229624539449
H         7.92546892421475   10.24073669754971    9.64433902830569
O         7.78744398205874    7.64008392513529    7.43363622039565
H         7.20805645128135    6.89591113542450    7.25573695118789
H         8.60577079609369    7.45456846251489    6.87085858054182
O         4.95797101887914    9.08855363543226    8.01482292090830
H         4.98701449747079    8.13455191937345    8.12946137982624
H         5.20920241215276    9.46832555286550    8.86791964043456
N         5.68428533437200    9.37793964317756    5.03986304163391
H         5.05189753745895   10.10817952845966    4.73657475064815
H         5.28147119468985    8.45793354930316    4.90614935060562
N         6.54251014230677   11.60162663471293    6.99050593084953
N         8.97362786274524   10.46223987952748    7.14890203751346
C         6.99211296189144    9.51013817130605    4.52886138444109
C         7.86449564275400    8.42445167323987    4.58619086885321
H         7.48900306573459    7.44348729611332    4.84388204077288
C         9.21688530561326    8.60804739339891    4.36529152420761
C         9.72679332566672    9.82774106819295    3.95790487477233
H        10.78112763187769    9.97708909188847    3.79166937927340
C         8.82953176808817   10.87011289464144    3.79994743114425
C         7.48222719820191   10.73235575315559    4.07425935570202
H         6.82927692371643   11.58609215723256    3.96597309321187
C        10.17192627489896    7.45198311856287    4.82383547654261
C         9.36847020045948   12.32649843467298    3.44913960826969
C         5.34128314211515   12.12977841556459    6.88085799875868
H         4.50853921918834   11.48815342318373    7.13627137967866
C         5.12758550064418   13.44353803978937    6.45485325442487
H         4.12000989837702   13.81941945520530    6.37059265998624
C         6.20872240103348   14.23426652099670    6.14649447033031
H         6.08051330872407   15.25028541947782    5.80466784295537
C         7.50236908657356   13.70368961120819    6.26914078835507
C         7.61557883537313   12.36094749988659    6.69177532093117
C         8.68056305353444   14.44349153262394    5.96644049503210
H         8.56659907515382   15.46114121367440    5.62661901390560
C         9.90695946765627   13.87863248846649    6.07041766685785
H        10.79674779462858   14.43052180887274    5.81156191718719
C        10.05726915163987   12.51918441320728    6.46686647525974
C         8.91253576385675   11.75880363672661    6.78063032923680
C        11.30041037361539   11.86690985249008    6.50960620156488
H        12.19270620538342   12.40630216200269    6.23264437898826
C        11.34399656012239   10.54468080256042    6.87574531460377
H        12.27409736962919   10.00044429086802    6.90587248377572
C        10.15474420495952    9.88340154826657    7.20112035155960
H        10.18235353792213    8.84453610045614    7.49855894982854

