95
CSD_code = UNUCOX | q = 0 | S = 0 | Stoichiometry = C27H55B9N3Ta | MND = 8
Ta        6.73154282570577    5.29662643197687    8.17266740272590
N         8.87989351045503    4.43811990859267   10.10605720415251
N         5.85184293883943    6.13086044408054    9.49408962202717
N         5.50079531874966    3.75994434644303    7.84970211189428
C         9.48862980811739    6.40076568564396    7.65299180155179
C         8.68801479477859    7.71258084675733    7.57047645657188
H         8.70952235481558    8.32147376330603    8.47521432984311
C        10.29250118860534    6.18659671311364    8.93469292557129
H        11.08420869545519    5.45636123839431    8.74469994882708
H        10.79621854021857    7.12002507987731    9.21081916006824
C         9.50338656682233    5.76432859300061   10.18175985824077
H        10.19119948068928    5.79979621635887   11.04732116713425
H         8.69763703590480    6.48516702269224   10.36103016166505
C         9.88448258641408    3.38794996574741    9.99403563506382
H         9.39598442456565    2.41571523197338   10.05138774703271
H        10.39693148588913    3.45389386598322    9.03683915554040
H        10.63181839052369    3.44692132948278   10.79880763817101
C         8.08783551580563    4.21647478765738   11.31312845439871
H         7.62968430271765    3.22956338800346   11.26700348835426
H         8.70583291150911    4.27355195672261   12.22103973335037
H         7.29520376917464    4.96180496566382   11.35828631350281
C         6.01531879546338    2.67035680890518    7.03924417158838
H         6.69732580437376    3.11043564664356    6.29498705242279
C         4.94025649159254    1.90525758964697    6.25888777590422
H         4.35219023132281    2.60771867197377    5.66791553631601
H         4.26481739017537    1.40879280935867    6.95838945002314
C         5.59167442983494    0.87134290451633    5.34394582912866
H         4.81888900721921    0.32689228253744    4.79738608428910
H         6.22079770167732    1.38207149712362    4.61123562882394
C         6.44475502982656   -0.10603634509076    6.14738452917515
H         5.80415912145504   -0.66815337679537    6.83126471829360
H         6.92450839736703   -0.82050329703795    5.47549446467345
C         7.50269307736643    0.64521728854078    6.95039378185001
H         8.18322244932842    1.15595312607835    6.26465882372941
H         8.09189855516639   -0.05984458970202    7.54190148176029
C         6.84055435325747    1.66809583686088    7.86874691807542
H         6.18623397260785    1.15209784546679    8.57286747930391
H         7.59662864923578    2.21164218808200    8.44319352232828
C         4.25243418570762    3.55530666053583    8.48063918006042
C         4.29601885969137    2.76993742475276    9.77316777246321
H         5.27631660239565    2.90476678429687   10.22642411970959
H         3.53964289023425    3.12243357655085   10.46734494785828
H         4.12070374317186    1.70782727858761    9.59762522689996
C         3.11878735051750    4.07505533330867    7.99785168289804
C         1.79527592256458    3.88323739431991    8.69051097432874
H         0.98427795257670    4.21288774221797    8.04713700413452
H         1.62815652227843    2.83919280996042    8.94654509440419
H         1.75367650908591    4.46475897038717    9.61149162520628
C         3.06287696507358    4.89572750918567    6.74230147037061
H         2.54951487507490    5.83543929275636    6.93834446895374
H         4.06139372496455    5.11992336643107    6.37547680433330
H         2.50106015490127    4.36858786111756    5.96983865015004
C         5.08116772704115    6.98840035980677   10.30211276147724
C         4.46519208653757    6.23952613878345   11.50124340274969
H         5.26428381881646    5.82153543345309   12.11586418230896
H         3.87047312688887    5.41295822688909   11.11417145666096
C         3.60649431009814    7.19279176746867   12.33016889077026
H         3.17893445844244    6.64679658442383   13.17935298150559
C         2.47834816809656    7.75577290758049   11.46775822543498
H         1.85316344068440    8.42401606764712   12.06444435905504
H         1.84874437074898    6.94189287204275   11.10297145654703
C         3.07774233709055    8.51604391488539   10.28585378174949
H         2.27023020834013    8.91916316389210    9.66465510325914
C         3.94349972142850    9.66484104747841   10.80089082759738
H         4.36476010011162   10.21584953173294    9.95832666333158
H         3.33554415304556   10.35748100017241   11.38756068887968
C         5.06908701539859    9.10172448845806   11.66687783838891
H         5.68811348328409    9.92574068954371   12.04056043354906
C         5.93506057692696    8.15743989659029   10.83559677147041
H         6.37018489427082    8.68248310961900    9.98387168191936
H         6.74769541938217    7.75658789734164   11.44579883201878
C         4.47085510096679    8.34108020028656   12.84988907784975
H         3.86478072496040    9.01702706197566   13.45735436024535
H         5.26980943578089    7.94746411909380   13.48206187328361
C         3.93197462501376    7.56668657496709    9.45074856797761
H         3.34319016992835    6.72923396001917    9.07890215297300
H         4.36809785997723    8.08089784302520    8.59397881938568
B         7.36881303004470    7.63826303851886    6.66409414760824
H         6.39894053747122    8.24818521439346    6.96164662849656
B         7.36243843695223    5.89621512442768    5.98275694013659
H         6.46637075506903    5.33338156893371    5.42621430206778
B         8.85860518078696    5.19703694360772    6.77240822880966
H         9.08869307932929    4.05562798511736    7.05690122605609
B        10.17692708555122    7.72775878874860    6.68668188954330
H        11.09468996955600    8.30705891195575    7.14654245521951
B         8.78618247718822    8.49614674252934    5.99676107035520
H         8.73795620878170    9.66960858286416    5.92307927046195
B         7.90049734788900    7.30235633608608    5.04314161566635
H         7.27004850630944    7.57879704774003    4.08404075066603
B         8.90372604415316    5.74769027444093    5.10551673720885
H         8.92228826866781    4.98633359939897    4.19936443740459
B        10.28535913426264    6.07972673482409    6.12456141176650
H        11.32479772342205    5.51931171843746    6.12818009872376
B         9.70183308679043    7.34663535655166    5.03137489904491
H        10.31697963363591    7.67439050211184    4.08177211578424

