87
CSD_code = UNUDIS | q = 0 | S = 0 | Stoichiometry = C25H49B9N3Ta | MND = 9
Ta        4.96591675795706    7.39861511065498   10.15198562950265
N         6.22667550975389    6.86315172456524    7.61782949455878
N         5.38826557305647    5.71608579874297   10.64958440222233
N         6.32955795558409    9.57981548278595   10.65261983640792
C         3.20567450591512    7.84745972671237    7.56755319376593
C         2.24421850509559    6.82824332488509    8.21431681113637
H         2.31687099699820    5.81698412477543    7.81538555051106
C         4.05272720726680    7.34731225155650    6.39699355438332
H         3.41394169662623    6.82615858068207    5.67552616371902
H         4.46798733591210    8.21084210856061    5.87020917806840
C         5.18349297824650    6.36014289777352    6.71912613003134
H         5.63790214779841    6.04254673488373    5.76309543839239
H         4.75942978793146    5.47120938175983    7.19528101828298
C         6.94697136683807    7.99107084501600    7.03973920118194
H         6.27275853467272    8.82737127092669    6.87249466826312
H         7.72154003185712    8.30961974427696    7.73705145003627
H         7.42019997177858    7.72418424240032    6.08376734809312
C         7.17807898621084    5.79109698589538    7.90334822123089
H         6.66280891665993    4.95405712736329    8.36926690928512
H         7.67862553435758    5.44401795908239    6.98848513119739
H         7.92993581517202    6.15475966781077    8.60262680100919
C         5.79891466475018    4.50553980179171   11.06217986624167
C         5.35148037669516    3.30453616857632   10.46293406462844
C         5.83123599443873    2.08749978887845   10.91730387386529
H         5.47710282772289    1.17927383672401   10.44983598656808
C         6.74712098826635    2.01619025817237   11.95052481177351
H         7.10925600232200    1.05860215000281   12.29293999711102
C         7.19682697339229    3.18604853829950   12.54294455073174
H         7.91396476607114    3.13467058469441   13.35025465923747
C         6.74254192418864    4.41851261124540   12.11922780362762
C         7.21658687771823    5.68812453111130   12.75574806485568
H         7.97568563491555    5.48346048853385   13.50638216531746
H         7.62257803674694    6.35879651501117   11.99488923280591
H         6.37237371143398    6.19582639198030   13.22243966875403
C         4.36189752738375    3.33544742201396    9.33446821958391
H         3.44861514411436    2.81480913151132    9.61953843401427
H         4.11721718042938    4.36633675121349    9.08802056340022
H         4.76935365241179    2.83455085914843    8.45593147370355
C         6.88373597664743   10.92091717786945   10.68950940905728
H         7.32381246599663   11.06985053286335    9.69161214611616
C         7.99142446198205   11.13004373397975   11.72592401419615
H         8.76904299830105   10.37507791781609   11.58429354126793
H         7.59289419759460   11.01904075937295   12.73431409092315
C         5.77641385429776   11.96574793042908   10.87271464460558
H         4.99784048737306   11.80599238457087   10.12343978996038
H         5.31890593448305   11.85150105366161   11.85772344091222
C         5.86642458281620    8.86806043169501   11.57436725624038
C         5.75636280930418    9.11199016804263   13.05216965886762
H         4.96872630038057    8.48179204547815   13.46604172416544
H         6.69676952828488    8.83654014717120   13.53040283458687
H         5.53589884048823   10.15245030037753   13.28959993442323
C         8.57515688932257   12.53199976620296   11.57336373281126
H         9.02194196300271   12.63637327465603   10.58170279429422
H         9.36426907822863   12.68342962772097   12.31293385856802
C         7.48397893014540   13.58469135496017   11.75156486148009
H         7.07973188379718   13.51845198355656   12.76466644885851
H         7.90779372139053   14.58313091349005   11.62702958816926
C         6.35972351287080   13.36925168694203   10.74145063136253
H         5.57136651393211   14.10812150540868   10.89736113762138
H         6.75079507771713   13.50602228008592    9.73049396841849
C         1.77311326107933    5.82606615395110   10.80652220607288
H         2.57987437932023    5.09904439864934   10.64844864089554
C         0.45524019546559    5.05672645696665   10.63639673285930
H         0.35981166371762    4.66640315744473    9.62596740669587
H         0.40766305349737    4.21654118742839   11.32924487338695
H        -0.39299070529772    5.70835481440615   10.83111050242632
C         1.88522379634642    6.26937250562610   12.27195822097159
H         2.87699463480972    6.67858537880493   12.47383483878198
H         1.13780005185703    7.02570570445389   12.49900748654600
H         1.73058667872513    5.42349699334669   12.94084303252352
B         1.91910124707777    7.07297171185137    9.76109266677359
B         2.89450802868548    8.63997270771204   10.15889645089493
H         3.11596412571931    9.11344435611344   11.23366192554641
B         3.68484409099834    9.02595300159028    8.55427297090005
H         4.70942722159398    9.60455901840936    8.35710881276034
B         1.48813942733601    7.93962885058180    7.12166893306735
H         1.18430770567504    7.55387492757687    6.05091122839669
B         0.65012385907149    7.50967875615867    8.56983373793672
H        -0.31473873949028    6.84569465911446    8.49236793772843
B         1.13356934425055    8.61577784473167    9.85288380657144
H         0.43608537635844    8.94059065564804   10.74686222176765
B         2.24272788734635    9.87387613843734    9.04455145091832
H         2.27411179346688   10.99231341967141    9.42837578585347
B         2.39880588088734    9.40233836433319    7.36683688347827
H         2.68001705253851   10.08675606299206    6.44828251471032
B         0.83792797915145    9.20750738487265    8.17351420580863
H        -0.08508169705812    9.88381749271459    7.89661545103021

