31
CSD_code = UNUHAO | q = 0 | S = 0 | Stoichiometry = C12H10Cl2N6Zn | MND = 4
C        -0.47436791560931   19.86799393661870    1.36751274002968
C        -0.87760955563734   18.58522145134665    1.72111322970360
H        -1.82192268253029   18.17888706239406    1.39507286425184
C        -0.00211165129888   17.86572421127177    2.50205680142432
H        -0.26663991374716   16.86223409787997    2.79942697033540
C         1.22918298370724   18.39163495604209    2.92559991736402
H         1.87018245095890   17.77392320409258    3.53539932829269
C         1.63820781235843   19.65862501607057    2.58509006036217
H         2.58081231431422   20.07509106558675    2.90265240684826
C         0.76558195004723   20.40124648864133    1.78891288189108
C         1.77870421993165   26.19985127554798   -1.16455799863944
C         1.51906029552845   26.98372908324519   -2.28333097100835
H         1.33557587140445   28.04326645524413   -2.20154942918952
C         1.51268766754537   26.33117973498710   -3.49518951819542
H         1.31816957246675   26.89563106316925   -4.39458725509222
C         1.75291987151600   24.95173635272404   -3.60308042334638
H         1.73538808442345   24.50164573467953   -4.58359965288064
C         2.01036407402731   24.16529368497231   -2.50560250959379
H         2.20117993594490   23.10568255223191   -2.56978160481532
C         2.02291203708832   24.80986839399494   -1.26801086251779
Cl        2.88540787960719   21.14792566301863   -1.12038512452027
Cl        4.00050755692327   22.41404710214629    2.44417323692590
N         0.85515840466003   21.65910557832781    1.26817538274123
N        -0.19531902342739   21.91674558894156    0.59202958741696
N        -1.01607903818949   20.87539462525552    0.63001374960279
H        -1.88856613619538   20.89493204416426    0.12587666409274
N         2.24180341130546   24.35448852178979   -0.00091681483097
N         2.14963731897442   25.32081072196682    0.82539818294189
N         1.87469163621659   26.43871151505671    0.17279413117041
H         1.77590004806610   27.30777991672339    0.67436652365587
Zn        2.71968051960779   22.43649290185074    0.68612750557510

