69
CSD_code = UNUKIZ | q = 1 | S = 0 | Stoichiometry = C28H29N8NiO3(1+) | MND = 6
Ni        7.39468224807400    9.36292863938364    5.43291247459747
O         8.50035797979691   11.39450137690217    4.78018168953214
O         5.44018861792265    9.01541271034196    2.57169900721257
O         6.75299644963823   12.85847437312634    0.61903950057111
N         6.14122296155445   10.94469675062160    1.62048583955887
H         5.46554845644152   10.78746016476271    0.87941353041096
N         7.00363428376986   10.22121798014770    3.66515691227999
N         6.16930237567016    7.52772554458373    5.57178889422134
N         7.09762492933125    6.83813970933689    3.53495535313161
H         6.91296288100457    6.31711001304920    2.68821750768366
N         8.64619927822046    8.33795643319578    4.52109676929801
N         8.25191324072985    9.12090326805875    7.23131516200080
N         7.76872640760573   11.36629942137726    7.69634158672600
H         8.06109324897467   12.19410254965097    8.19708687403054
N         6.16607009520895   10.50064669981800    6.20489068006032
C         5.17195633274483    7.43492752459224    6.45751902029436
H         5.33709051386029    7.93982352193493    7.40092689668277
C         4.00326915458231    6.74352250598553    6.22163306205850
H         3.23050681141980    6.70232766005963    6.97111358856450
C         3.84684174526468    6.11007517454564    4.99165399425840
H         2.93909058949746    5.57539473363188    4.75968872221907
C         4.87770472303873    6.16426310684164    4.08123442928133
H         4.79976889192325    5.67735492858236    3.12255905988173
C         6.03598470162024    6.87872168907345    4.41408294695567
C         8.33845421940457    7.40333841785382    3.60752497787161
C         9.30453304751526    6.95413856101081    2.68620112749039
H         9.02254186365360    6.22242885909694    1.94536980318177
C        10.58549601627338    7.44538087348665    2.73951449482923
H        11.33158168329476    7.11043724066402    2.03655316573112
C        10.89919094602212    8.38506507378569    3.71929075406609
H        11.89156524870656    8.79386161442117    3.80430782198935
C         9.90151157548256    8.80238749247455    4.57074640091510
H        10.10907714645688    9.56079972885093    5.31499407507606
C         8.90721122976457    8.00139749009982    7.55558083414116
H         8.59927119144253    7.10611641032526    7.03253638460557
C         9.90799718223433    7.96304118928831    8.50180941436456
H        10.40543515066478    7.03614715078956    8.73216748074395
C        10.26586950056351    9.14883772224334    9.13900053842322
H        11.06419868882304    9.16489213776024    9.86410435677829
C         9.56777655815758   10.29787617384789    8.84571739716099
H         9.79539401287717   11.22900068176212    9.34030621527821
C         8.53598636956493   10.24509319373506    7.89614254619256
C         6.55667328620893   11.45541967014837    7.05556159303101
C         5.73415432155733   12.55529414803273    7.34331975854378
H         6.09032099803486   13.32673583936386    8.00781940227172
C         4.48379232294465   12.63200369793568    6.77375172505982
H         3.84047714959205   13.47338236765192    6.97657798344711
C         4.06594802902077   11.60117617491602    5.93671720965733
H         3.08972605146845   11.61161219311759    5.48244805249339
C         4.94017941918303   10.56876310436137    5.67358420497407
H         4.65600702113655    9.76922833600494    5.00118460674183
C         6.16300184339632    9.99040842622841    2.62964762243266
C         7.82688605147375   11.27730881269413    3.75243035597113
C         7.94793221467482   12.26632613708832    2.61445974987589
C         6.90374997913438   12.08378543390252    1.52822064014198
C         9.46730936226460   10.72945333338684    1.24177849334725
H         9.21117707598981    9.89956286404624    1.89882012761159
H        10.48983052263686   10.59054854906393    0.89964630180034
H         8.81367970046043   10.69682190663185    0.37292663141645
C         9.33920564694872   12.06493893582726    1.96540637014470
H         9.50108521176719   12.87648969369239    1.25479733254534
H        10.09034565909555   12.13687688866325    2.75450939923782
C         7.84219684407691   13.69807372314948    3.17489913994797
H         8.63685640470197   13.83727114588149    3.90921800542426
H         7.99261857149284   14.39769459328193    2.35231566226029
C         6.48693011720246   13.95996110012593    3.82084533409134
H         6.29978525181223   13.25260352344692    4.62742788604766
H         5.68759880839372   13.87034217491596    3.08831646845545
H         6.45840358652827   14.96559073534184    4.23220865267716

