71
CSD_code = UNUKAR | q = 0 | S = 0 | Stoichiometry = C26H31N7O6Zn | MND = 4
Zn        5.77347100963947    2.16738593622816    3.86143866831641
O         1.32231104066853    5.60826926631222    1.89357133124346
O         4.65069704914335    3.87285985437791    4.79572242726028
O         3.73036503196970    1.93763773342010    0.89482645428689
O         7.19111873428575    3.39054526456450    2.76212450684534
O         6.20503044500178   -0.87058866103744    1.93755764945780
O         8.73919854400091    1.20331519956092   -1.14864420855075
N         4.62553248694171    0.73993024703661    4.80944993861359
N         4.92232455601233    1.80343611127368    6.88047165285012
H         4.46518266291074    2.01534187358134    7.75757118744510
N         6.87634313183653    2.23243355013230    5.63233766173713
N         6.77190225262327    1.27105538654709    2.39519785513869
N         7.45877131492175    0.22359181362250    0.41484567628818
H         7.39032307644438   -0.60313944234714   -0.16965775897040
N         4.20847628946123    2.93686291293100    2.86454076624752
N         2.55707509165334    3.78921590334889    1.43675641211754
H         2.04609341876120    3.66672543292400    0.56845953786686
C         8.12640896847589    2.69177168785197    5.60762777744750
H         8.63275296000602    2.60432180851760    4.65884958619950
C         8.75509188712097    3.25574756763009    6.69671388026892
H         9.77004075312830    3.60890119796703    6.62142754618685
C         8.03782584198848    3.37128461740281    7.88322708808361
H         8.48218818328210    3.82512774324774    8.75614812273887
C         6.74927546470082    2.89264313899070    7.92506727151063
H         6.16279757740020    2.96235610372721    8.82892201301432
C         6.19142663784859    2.31081796786361    6.77382811693027
C         4.15382440207867    1.06815018142037    6.00999669328962
C         2.88929409053101    0.64316345503676    6.44406507318824
H         2.51875982290071    0.94577859798762    7.41218087514262
C         2.13403881249946   -0.15602882460830    5.61336379490593
H         1.15330148954966   -0.48637091895640    5.92157580525004
C         2.66000719593775   -0.53566900784529    4.38301579235075
H         2.11026033806735   -1.17805452254796    3.71587445358948
C         3.90313294516630   -0.05672445939947    4.02228755428287
H         4.36750021303725   -0.31735955886911    3.08164847815884
C         3.53823474771615    2.82168714716454    1.69633886479618
C         3.99890840200129    3.91052133549055    3.74468255157868
C         3.02322073665639    5.03367592929588    3.48596799337488
C         2.21141755179715    4.85536165686555    2.21581385268997
C         4.88425912490216    6.25175898431494    2.22841964281955
H         4.40956285358660    6.07133794681350    1.26549503823403
H         5.59615062449362    5.45124162442352    2.42311114668911
H         5.43312400481543    7.18890024599329    2.16587318984852
C         3.84519759296284    6.33598876200108    3.34092069464122
H         3.14773599292311    7.15202807875772    3.13933325892212
H         4.34581696796865    6.52499188327273    4.29223787447514
C         2.05776166350599    5.14802640292172    4.68094148050829
H         2.64889587847616    5.34254731614041    5.57740754305053
H         1.39089725198671    5.99324174348010    4.50359567564565
C         1.23697471293473    3.87690008065521    4.86949692821716
H         0.60479515045562    3.69685494805771    4.00241698124020
H         0.59695585946662    3.96919793656304    5.74423148269150
H         1.88877343016439    3.01435661028721    5.00619265085688
C         6.76428622313297    0.15475913848956    1.62595712593158
C         7.35918419365798    2.40490906514294    2.02772648887191
C         8.25582202998352    2.49599457074067    0.81561895229841
C         8.17857661936871    1.27241787137443   -0.08035159399006
C         6.47236603297722    3.65451586466823   -0.57359822079007
H         6.21108352691241    4.58316371571101   -1.07604442497119
H         5.74854612412251    3.47209199578676    0.21720773521762
H         6.39983366117352    2.84264539873446   -1.29382379079678
C         7.88240472515876    3.74652626095036   -0.00410829856177
H         7.96100849256412    4.61585289845705    0.65103899484362
H         8.60049547893715    3.84903753968088   -0.81953848914548
C         9.71295255012033    2.62389784473174    1.32154217931303
H        10.35601684214990    2.78634881234431    0.45454241370759
H         9.76652178644454    3.50410844281029    1.96581201072699
C        10.18908897599076    1.38961478695283    2.07975135097954
H        10.24482886666584    0.52931290200852    1.41612758398781
H         9.51435359090742    1.14513598091372    2.89899556711790
H        11.18120401287296    1.56571312006898    2.49027788421695

