71
CSD_code = UNUKOF | q = 0 | S = 0 | Stoichiometry = C28H30N6O6Zn | MND = 4
C         2.78052438869350   -0.46023393901714   -0.26145962046973
C         2.73225539502204    1.80094398777297   -1.28400168737218
C         2.83215018277909    2.41423844816552    0.10157678913893
C         2.91643082026214    1.39124489136169    1.20905867870804
C         4.09262495487675    3.30311124319237    0.15017646317115
H         4.00489047504994    4.06085039165075   -0.63034534962637
H         4.12174192262720    3.79659611023159    1.12285211065366
C         5.36969660264104    2.49653247671343   -0.05555342688576
H         6.23825928393151    3.14684057169394    0.02021256725373
H         5.37725280643893    2.03083958112291   -1.03923809416056
H         5.45598146303007    1.71512699561841    0.69841839352292
C         1.57203532397153    3.27595875181679    0.34064899131472
H         1.69018818355985    3.78791883673624    1.29697874715244
H         1.51758225160836    4.02103294702769   -0.45572955151843
C         0.29571920481083    2.44271687600394    0.36016140857709
H        -0.56081002165219    3.08492471224750    0.55399505509731
H         0.34051498672945    1.68165353526944    1.13746828714274
H         0.14164405509736    1.95046438681704   -0.59847052217238
C         2.28293317467136    0.14517936643479    5.97475268928945
C         0.02302137549813    1.02505826721908    6.50377537558895
C        -0.37014120337368    0.85034769134189    5.04753805651822
C         0.72772143627792    0.26390411746659    4.19272312090753
C        -1.60048190864669   -0.07843743241031    4.98237352950496
H        -2.39798673745838    0.37068977825895    5.57675496847034
H        -1.92391257794460   -0.13986420847662    3.94216444856630
C        -1.29035578384567   -1.47561363021089    5.50733382638592
H        -2.16695207955775   -2.11272088115209    5.41395743236649
H        -1.00593149243199   -1.43857242606244    6.55722313786227
H        -0.47442674681741   -1.92534264196839    4.94293042359781
C        -0.72954317667636    2.24015689647140    4.47520837181860
H        -1.10125015770321    2.10029851985125    3.45888083773511
H        -1.52820402545565    2.66087047811490    5.08957458875967
C         0.46545571320070    3.18638894760460    4.45744464380798
H         0.17313573042447    4.14127637133789    4.02576163123681
H         1.27927466636734    2.77328876750808    3.86370869365075
H         0.82981847898391    3.36698862260097    5.46722186149608
C         4.80543267547736   -2.17728389773448    3.50988826279166
C         3.76876756793175   -3.00452368465489    2.96287070748698
C         1.66344087775066   -3.14959737070822    2.07284911285741
H         0.75908587752027   -2.62347118372584    1.80463059462452
C         1.80069620773002   -4.52358457530852    1.84903092870645
H         0.99741861408886   -5.07377277974619    1.38575762248708
C         2.96263504833789   -5.14904826648691    2.22998007703277
H         3.10044340431231   -6.21114113487294    2.08618046571022
C         3.99147228230232   -4.39052835803939    2.81486602506461
C         5.22205930460321   -4.95361654809097    3.26123486414462
H         5.36814366466252   -6.01718675569538    3.14283594769229
C         6.17849013375636   -4.18047445376964    3.83004581155270
H         7.10278643366997   -4.61370272716479    4.18292779729571
C         6.00018109057831   -2.77337782639393    3.96794867361494
C         6.96511620283384   -1.92541910274091    4.53871707482267
H         7.88725578352101   -2.34544821367543    4.91414932329406
C         6.71524655351343   -0.57680740684597    4.61098976708763
H         7.42854542182233    0.09931419714354    5.05445536546192
C         5.51404505838693   -0.07934304097951    4.09476932928086
H         5.28721515920866    0.97642882349193    4.11638765979040
N         2.88486938554877    0.08210952409093    0.97089344741310
N         2.71930175718918    0.43496246459913   -1.33517953072266
H         2.64506542111292    0.01143032087329   -2.25438467766569
N         1.92904141628463   -0.03188811112740    4.68354014637070
N         1.29936187334186    0.65811460367835    6.82777342126323
H         1.57966920392617    0.77931781836617    7.79554525899237
N         4.60176071629681   -0.85407742243715    3.55870975169860
N         2.61166216833312   -2.42516950538787    2.61667382276097
O         2.75239555725812   -1.65318695085091   -0.47019137329682
O         2.66963057734489    2.46444641173321   -2.29221235932748
O         3.01639909217114    1.74281283384076    2.39135574190837
O         3.37814524109738   -0.12761641340388    6.41464509260029
O        -0.73343201701252    1.46016312923128    7.33992908209115
O         0.54362585051739    0.04034203010460    2.98964169397354
Zn        2.69826942948234   -0.37113383556791    2.88986819406214

