122
CSD_code = UNUVIK | q = 0 | S = 0 | Stoichiometry = C63H54Cl2OsP2 | MND = 6
Os       -0.96373090802416    1.42567348665076   15.72535802443193
Cl       -2.62289436806442    0.23615749444014   14.52536357441367
Cl       -0.72145722674341   -0.46344310634145   17.33873159411183
P        -2.99731227244778    2.18338229265499   16.65599662730135
P         0.78144352827190   -0.02388103546280   15.04470656679962
C         0.17120551886366    2.63127714011524   16.51422754325542
C         0.78572071061465    3.83585329373507   16.55424159593426
C         0.37720041012158    4.69586710752967   15.51531476445926
C        -0.42631163428673    4.22948459780479   14.46239777520422
H        -0.59668830873207    4.94578246801995   13.66338232703397
C        -0.92308058791764    2.95028001632263   14.28927775103461
C         0.73465989258663    6.15512710600311   15.55817798022479
H         1.57187640752016    6.32882471082050   16.23567252189871
H         1.00116887049673    6.51028625866191   14.56130597880714
C        -1.53833848225363    2.70171402710881   12.98379502460750
C        -1.19063846500812    1.59038395843317   12.21344246356310
H        -0.42731230442337    0.92073942224995   12.58232192493402
C        -1.77263462259314    1.35822686277855   10.98611367957804
H        -1.47715916053456    0.49166408200390   10.41048298793705
C        -2.74457488945149    2.21534051131974   10.48237121491699
C        -3.08568460703385    3.33068469252259   11.23605483167918
H        -3.83541917349214    4.01662081588524   10.86580418136599
C        -2.48362928402158    3.58203379919496   12.45238749895852
H        -2.77122706111276    4.45460490012255   13.01786789833943
C        -3.41486065110861    1.93129016117313    9.17318705446612
H        -2.72131031247032    1.46765384216202    8.47469824708638
H        -3.80688618735378    2.84419406315144    8.73038081708369
H        -4.24778706740680    1.24354423529825    9.32453431927836
C        -0.48269816229436    6.89362884417553   16.05876907192935
C        -1.20670940004732    7.74001117482741   15.23297639332394
H        -0.88268166229868    7.90539056931291   14.21503550242348
C        -2.33853275664771    8.38359893195323   15.70257176250857
H        -2.88365628978689    9.04926083235453   15.04718712036179
C        -2.78240934836486    8.18746003070231   17.00328498412441
C        -2.05311382412189    7.33882220056419   17.82799404214487
H        -2.37699693337310    7.17387955579679   18.84521405490575
C        -0.92023856244686    6.69963999126897   17.36404660568420
H        -0.37016084742609    6.04096085630330   18.02027222544494
C        -4.03228467844163    8.84756673401821   17.50044905113745
H        -4.25034158964163    9.74941920703989   16.93313684695837
H        -3.94112337514914    9.10606436301233   18.55312458174472
H        -4.87837608189347    8.16699924998629   17.39376113507325
C         1.81423102186307    4.15553823151862   17.56343993771110
C         1.52757020120792    4.03180911613882   18.91905198461600
H         0.52773631855478    3.75929870793719   19.22529374773508
C         2.51078818909504    4.25727269488531   19.86208517468292
H         2.27569731834465    4.16136586465139   20.91284398854586
C         3.80385304726516    4.59882863940534   19.48031915899288
C         4.08583450630130    4.71056984054991   18.12539445884954
H         5.08723779964564    4.96468736904272   17.80752539658538
C         3.10626904485778    4.49090231884926   17.17464512865299
H         3.34831418898595    4.55810988113197   16.12318694371589
C         4.85949412502178    4.83767118624831   20.51665631608304
H         5.83676707714560    4.96132537876276   20.05683798277427
H         4.90460355857219    4.00426750214348   21.21619684350437
H         4.63074872601620    5.73744370479890   21.08781394269898
C        -2.83061129347673    3.10036355800264   18.23705371890544
C        -3.61002287597506    4.18419718468886   18.62337193702079
H        -4.33133408021073    4.61267629229377   17.94248203940617
C        -3.46110893903966    4.72969715572562   19.88650464022426
H        -4.07382797979778    5.57057206220547   20.17968071733194
C        -2.54442723721802    4.19780004661232   20.77735933172440
H        -2.43387049537229    4.62860034184887   21.76191518994959
C        -1.77615621292599    3.10701149296948   20.40421811424945
H        -1.06940196968674    2.67834443583740   21.10034304906383
C        -1.91923779272710    2.56127145767001   19.14175756098174
H        -1.32815268956363    1.70300053499216   18.84622469556981
C        -3.93068947279397    3.31588471328039   15.58687074127165
C        -4.94775346232291    2.84209261584784   14.76490380591857
H        -5.18237545003729    1.78724418997885   14.75783336525703
C        -5.64995317234895    3.71897039220132   13.95810715772746
H        -6.43962156280353    3.34686745713083   13.32203501013800
C        -5.34574552210034    5.07013044510300   13.96911254513120
H        -5.90693567348887    5.75635809341809   13.35143868182976
C        -4.30636569174315    5.53977194521860   14.75764395350772
H        -4.04591980235623    6.58811583038365   14.75056663178767
C        -3.58723767825199    4.66499972212296   15.55183724203743
H        -2.75536424492650    5.02255820090068   16.14344232991974
C        -4.30187158828845    1.03139219449149   17.22094293565302
C        -4.10593048965795   -0.33657329829984   17.34343333879088
H        -3.16155129483950   -0.78116466063080   17.07033773277873
C        -5.12841564916888   -1.14326269327626   17.81434438231875
H        -4.96833843352998   -2.20793933939547   17.90062417562281
C        -6.34577465993081   -0.59259858004584   18.17141299468607
H        -7.14299513695321   -1.22439797524106   18.53553665897511
C        -6.54117665530783    0.77571405862236   18.06288029272692
H        -7.48884641140091    1.21268894192689   18.34376278738820
C        -5.52578008607880    1.58557590473264   17.59488155846288
H        -5.68421666889410    2.65199516209193   17.51172051473398
C         2.22722537461025   -0.12853398264126   16.16034533560340
C         2.34474276601197    0.66964876465555   17.28830328214227
H         1.52340437766269    1.32266549384240   17.56296879941221
C         3.49240908670052    0.62982455404608   18.05919733586121
H         3.57354038016785    1.26416958068370   18.92966274750887
C         4.52965712204071   -0.21820667367803   17.71122946961123
H         5.42577669707759   -0.25460279858738   18.31319467563874
C         4.41799281724991   -1.02179858094383   16.58720702298034
H         5.22585788568200   -1.68498491876267   16.31349381501118
C         3.27782226563103   -0.97253698551924   15.80819685959225
H         3.19912495021962   -1.58993910661321   14.92319700896029
C         1.76758231677371    0.44676009274320   13.56373719759607
C         2.18034420269939    1.77595635399785   13.52399430214536
H         1.86602018892996    2.43890946425862   14.32171748274672
C         2.95826232527954    2.23634470751216   12.48074436030859
H         3.27088231571744    3.27000650572678   12.45403315633174
C         3.33339992726499    1.37079782947146   11.46454103062877
H         3.93628350308575    1.72876987945916   10.64301938433011
C         2.93333375435703    0.04667577719818   11.50324228144375
H         3.22730121027329   -0.63042648499938   10.71413850742323
C         2.15577948651976   -0.41940661932558   12.55021281060441
H         1.84694647645197   -1.45570207555307   12.56898112061035
C         0.32310817991350   -1.74673088677418   14.70290117349418
C         0.65175486461948   -2.77290590323083   15.58335308765469
H         1.21268948225755   -2.55440500933840   16.48099423479301
C         0.23679304781028   -4.06518776891762   15.32085333299871
H         0.49348216089871   -4.85835358555246   16.00818216574292
C        -0.51751918973166   -4.34123920780208   14.19194097938939
H        -0.84696508277900   -5.35138826027354   13.99584578420571
C        -0.86272800550889   -3.31886879167366   13.32392511721331
H        -1.46714533306116   -3.52655863379067   12.45285431265376
C        -0.44719470196520   -2.02429615210053   13.57596175308542
H        -0.73991385455732   -1.22607464295198   12.90903908963456

