89
CSD_code = UPABUK | q = 0 | S = 0 | Stoichiometry = C28H51N6OSi2Y | MND = 6
Y        -0.49139070992038   12.69036115328471   16.54324999355459
Si        2.01246295821408   11.04187294754898   18.76970146069092
Si       -3.78877883110361   13.13887673464691   18.24152872734271
O         1.10565223104678   14.86851200211226   17.10883075697360
N        -1.81454889447922   11.41477923655900   14.85456966580217
N        -1.50566554960789   14.56720473525287   15.18998286011036
N         0.84599048601381   12.88853134310432   14.33178246167797
N        -2.13396823416312   12.09941904122831   13.73163232119289
N        -1.52207638265518   14.39271007253397   13.84700246497447
N         0.06582896299108   12.76907226759779   13.23140510189857
C        -1.32560290098953   13.14492722464666   13.14591599475531
C        -3.82849821277232   12.14853169236045   11.91889614463716
H        -3.03732817530020   12.40275585148932   11.21682218006387
H        -4.38517122836446   13.05716740517296   12.14787064962386
H        -4.50644016995616   11.42940623299835   11.46761645652591
C        -3.23569886080890   11.58422484368194   13.15657360621445
C        -3.64614444526182   10.52048346773373   13.93934445330095
H        -4.49375708499254    9.88612413864532   13.77643438212669
C        -2.72215767527655   10.44845280417033   14.98538688352479
C        -2.66636354524938    9.46307545537850   16.10088773750820
H        -1.91262499115625    8.70250155249486   15.89273017973876
H        -3.63030548775889    8.97214264850674   16.21281608369472
H        -2.40065925591463    9.96475062698424   17.03314472257662
C        -1.83015681719535   15.66848054611188   11.73745650081360
H        -0.82304085538970   15.63709187951987   11.32191612799146
H        -2.29687362965766   16.60741584239979   11.45278033510579
H        -2.39155615589932   14.83620971894485   11.31999378094750
C        -1.78001305402388   15.55332125705903   13.21653356113356
C        -1.95011349841150   16.51780392842966   14.18969586960911
H        -2.17629279363857   17.55481438858932   14.04375569382480
C        -1.78006660998429   15.85059814783829   15.40764016956265
C        -1.92747588510488   16.42613496509270   16.77366825694984
H        -1.63128533868919   15.69372543219623   17.52138969776456
H        -2.96851191408568   16.69846051537391   16.94832027902739
H        -1.32631394514357   17.32946240890507   16.87578314970912
C         0.16514811723195   12.07926122928771   10.85208477466084
H        -0.38159617542136   11.13653300599137   10.85377033985882
H         0.93499237658191   12.03438814396890   10.08675456311270
H        -0.53985384584054   12.87610083425819   10.62501615361715
C         0.77816676660041   12.32064668834083   12.18175658973076
C         2.07824740890813   12.14911204371794   12.61542640289058
H         2.91462664521869   11.80508213636248   12.04136657571568
C         2.07302523825185   12.52438265862150   13.96244139235807
C         3.23360576828846   12.57419394626994   14.89345702600138
H         2.89385786210795   12.83726611857369   15.89201367326508
H         3.96325386192400   13.30753418150259   14.54715009366629
H         3.72798765398120   11.60472872749563   14.93200170279956
C         0.91620287095483   10.89524047396115   17.25012567728831
H         0.25074364927656   10.03704990827188   17.42071774085534
H         1.54000789240115   10.61073172987703   16.39249624144142
C         3.46137996141344   12.28119685364845   18.53791045124631
H         4.22108237996911   11.87934703324892   17.87519011034799
H         3.94234255557491   12.49836321741269   19.48730340298152
H         3.11858742262000   13.22138090528178   18.12035620393978
C         2.84968495579327    9.39702017879057   19.30542015341237
H         2.10686191953159    8.64572750069844   19.55544863604642
H         3.48658522245509    9.52868435238424   20.17512926739798
H         3.46523825874119    8.99145102261608   18.50806703834001
C         1.02473585362216   11.64008324478887   20.30006203695846
H         0.56990929854632   12.61258752016971   20.13401950178055
H         1.66190912818818   11.71839966181824   21.17634936413319
H         0.22708984274357   10.94468119537658   20.54154548654916
C        -1.91894572232391   12.96548057036060   18.42669340556057
H        -1.74012682490457   12.10631978952279   19.08541004111122
H        -1.55301967517315   13.83484094003579   18.99094989530638
C        -4.49068094313827   14.58825778184678   19.29219279160958
H        -4.30938423501191   14.42365939210110   20.34975105879948
H        -5.56207376723012   14.70085230538165   19.15765388092034
H        -4.02744056235232   15.53367523708089   19.02703778407213
C        -4.41190783921477   13.43939585079333   16.45283718026981
H        -3.99122708139458   14.34140553518209   16.02100996558393
H        -5.49355587848384   13.54236797418089   16.43114908409550
H        -4.15505431449097   12.60901117570766   15.80224617124935
C        -4.70125961673395   11.56461323723673   18.84828850483449
H        -4.45434759314989   10.70293003347284   18.23727581068707
H        -5.77857182914818   11.69284150881348   18.81064732463776
H        -4.43577282224464   11.32717001662068   19.87351182111007
C         1.39902337506990   15.48103147866287   18.36114109018263
H         1.38752368210626   14.69956341170353   19.12231456102178
H         0.62600607392261   16.22545216358255   18.59614657967077
C         2.77198851462035   16.16439219931141   18.21101897229852
H         2.73439796635664   17.18740922027542   18.58111269465996
H         3.54120422844941   15.63031392059315   18.76483239674821
C         3.04087318529611   16.11834411759727   16.69876005353200
H         3.78120917331845   15.35411297554073   16.46574111730957
H         3.38681559275995   17.07067608584048   16.30422885776665
C         1.67968618188605   15.72003531127035   16.12482222149721
H         1.73605154564826   15.16258167545958   15.19022152895850
H         1.04591279057880   16.60698907050257   15.98436589515244

