45
CSD_code = UPAFAU | q = 0 | S = 0 | Stoichiometry = C19H20AgClN2O2 | MND = 2
Ag        8.63325140778854    7.20678077813084    0.65382980488240
Cl        7.99322665989007    8.59297785529844   -1.00203478749927
N         9.53077690459063    4.53290631296363    2.00902691438864
N        10.28640923469222    6.19577229438460    3.12286073309350
O        12.34680018309619    2.39783252303564   -3.19749297786234
O        15.05736792558339    9.60685616999931    0.83167295953337
C         9.45324269120562    5.87512276838054    2.11172171027369
C        10.40279952407071    4.02449697789710    2.92992607318289
H        10.60976670707937    2.97761687299038    3.01217738330356
C        10.88104109825378    5.07724034892647    3.63451176825910
H        11.57780293857680    5.11258477274952    4.44625033584447
C         8.83180507563287    3.73491740021130    1.02829271151879
H         7.98448289522138    4.32803138046761    0.66454212976701
H         8.45840737555067    2.82794681243427    1.51169328511217
C         9.74518686788389    3.38375724962362   -0.11937392083885
C        10.05685098016831    4.33880423575172   -1.07450604817637
H         9.60945913888871    5.32991957081743   -1.00798436464432
C        10.91944046635133    4.05616348252821   -2.11721755579167
H        11.13195281388788    4.82570138071959   -2.84124803582845
C        11.49048469981342    2.79042372002262   -2.21974779416485
C        11.17925174159715    1.82577287535811   -1.25945295496165
H        11.62534412090019    0.84840103126441   -1.35188744389435
C        10.32056107468095    2.12251578434751   -0.22311823670386
H        10.08710072915410    1.36086584732383    0.50711172367464
C        12.68506229940326    3.31801878705094   -4.20863988772080
H        11.80175502704505    3.64544802201327   -4.76527490154233
H        13.35568415666577    2.78347379200288   -4.87946623725011
H        13.20280126524498    4.19124133191595   -3.79950372343444
C        10.55756025855166    7.54262605845068    3.57301056995665
H        10.74886801404510    7.51632966757064    4.64909042385887
H         9.66534907853047    8.14632584525376    3.37701414182105
C        11.74107855797818    8.12514711914369    2.84025557008359
C        11.56503161747417    8.77640196050918    1.62935750102572
H        10.56287652505511    8.90120320454140    1.22273597929490
C        12.64090076321467    9.28458050564985    0.92411850177451
H        12.45739925133949    9.78737494710500   -0.01130272150761
C        13.92976587946723    9.14533569705620    1.43067968868709
C        14.11187615627364    8.48843042911774    2.64974701456171
H        15.11487163977004    8.38869381228290    3.03307161698542
C        13.03120161944698    7.98552856912390    3.34099695815085
H        13.19281006128248    7.48484782980698    4.28493270318357
C        14.93690414555511   10.30223589406480   -0.38760854058347
H        14.50873222473522    9.66887270985355   -1.17062406595788
H        15.95105611259747   10.58388393453213   -0.66621900337544
H        14.32820209176024   11.20469143733878   -0.27602500048347

