79
CSD_code = UPAGID | q = 0 | S = 0 | Stoichiometry = C33H33B2FeN9O | MND = 6
B         9.07707833736776    6.16075161766311   11.70959260170682
B         9.11281565105585   10.94736320033069   13.32878422506495
C         9.69287702101866    9.44632473720860   13.49954358143364
C        10.48691746336699    9.09526804936349   14.58777279656576
H        10.77637799222661    9.85392690559882   15.29720366254458
C        10.85696030563946    7.77751163793759   14.77833685451212
H        11.43401950209007    7.48132069678716   15.64290987721885
C        10.46548242389500    6.84905218185992   13.83248734773424
H        10.73711906362860    5.81093166571179   13.93816490997601
C         9.67332895787755    7.24075315878761   12.75698839869369
C         5.65471493054810    6.77405215718535   12.65383570054629
H         4.83561998773330    7.46084252406904   12.67606390562535
C         5.68680530398838    5.45657108708178   13.09904802464004
H         4.90015267919436    4.90044008482179   13.56669582235927
C         6.96830116484896    5.03225304333205   12.80755713037788
H         7.44009291150310    4.09289149335890   13.00803724842479
C         9.43069695933007    6.22998300785506    9.14263196794098
H         9.97813733363027    5.31057074780300    9.11560615488876
C         9.04318720570621    7.05808271070143    8.11075793179256
H         9.22477935306525    6.93242064736770    7.06298915362985
C         8.36426973109378    8.09711068836012    8.74153531529089
H         7.88918945491704    8.94378259424230    8.29410983862685
C         9.85753154512171    4.75678579268587   11.56498453153188
C        11.24471355381841    4.68608521390894   11.69727800661480
H        11.79703608027076    5.58328466975802   11.93657621109578
C        11.94063488716774    3.50486484214554   11.50674466102787
H        13.01521334236492    3.48758349629432   11.62515810461456
C        11.26587115113048    2.34850484505141   11.15695224850679
H        11.80348487288369    1.42203614939139   11.01391162178464
C         9.89638848621169    2.40036688531245   10.96647132482207
H         9.35975531568470    1.51333116331198   10.65850678516252
C         9.21233865357547    3.58844697817786   11.15766980547027
H         8.15010455734875    3.60866839839563   10.95807928596771
C         7.02787325073888   11.18618188225468   14.91464620480597
H         7.51540013845176   11.80496432593878   15.63894122894193
C         5.74385354793777   10.67786947785259   14.90873500927429
H         4.97051725591683   10.83535982209342   15.63254526296620
C         5.68795530268865    9.90769298028040   13.75178124224577
H         4.85961088563621    9.35264136657140   13.36615604128403
C         9.44598121783582   12.46170005148693   11.25160645957287
H        10.00678216182956   13.20187640544413   11.78393976469973
C         9.03182026611459   12.44342279387191    9.93677903665049
H         9.20078177295678   13.18559546219691    9.18361707651616
C         8.34575751965289   11.23849567524951    9.81014908109307
H         7.84925557217738   10.84784824496544    8.94762965376319
C         9.91279266925900   12.13992636604892   14.06273068060587
C        11.30117727268347   12.10083338200398   14.19541312124273
H        11.84048786972705   11.23810497906918   13.83187241716713
C        12.01414077472053   13.14574211066840   14.75731713473021
H        13.08914572822229   13.07615129200686   14.84987061268611
C        11.35576519256710   14.28221633720714   15.19298068856875
H        11.90677660161346   15.09801145790545   15.63874304786138
C         9.98512614077781   14.37131168477149   15.02592589783529
H         9.46100340475884   15.26738546531039   15.32920227556106
C         9.28389967533414   13.32042182358484   14.46029337158182
H         8.22087274169982   13.43677485774703   14.30197941211925
C         5.04079550017923    8.37179061239920    9.59857590949425
H         5.41731011967981    7.37891352183934    9.83706177707174
H         5.17200579713975    8.56043058476416    8.52318666254049
C         3.57472762570426    8.59409108374292   10.00240143917601
H         2.90746977152401    8.46283052187316    9.15318992811710
H         3.27968860315122    7.88903853608862   10.77729599759215
C         3.56301272973191   10.03818962572431   10.53445611244411
H         3.27617444700803   10.06549967954497   11.58409991481251
H         2.87926764553474   10.67705263107929    9.97966138906881
C         5.01948611381973   10.49506976012953   10.36164897740766
H         5.13954871693266   11.03209661335971    9.40950513061482
H         5.38495787053865   11.11931023823053   11.17473512090072
Fe        7.59541240767567    8.89565815943019   11.54176264875440
N         9.24639099491445    8.50653348015731   12.65582345424121
N         6.83216477027386    7.11442415587390   12.14306467674879
N         7.61699866303491    6.03878228502770   12.21175993071197
N         8.35638086644103    7.90404726377134   10.05400850650310
N         8.99673014778366    6.76416359134833   10.29318891255541
N         6.85421387636009    9.94586496705515   13.11794438411282
N         7.65535665682104   10.75127282428222   13.81655596949745
N         8.35953170141851   10.58453126367002   10.96426398839332
N         9.01971377959640   11.33485440885313   11.84004764097221
O         5.79298805213502    9.31166287536105   10.34052177030664

