25
CSD_code = UPEBOI | q = 0 | S = 0 | Stoichiometry = C6H6Cl2N6O4Pd | MND = 4
Pd        4.32158816264197    5.21879486213452    7.88467162365818
Cl        2.45788001852205    5.49522648446426    6.55411510797332
Cl        6.18561770423438    4.97057854795149    9.22061927423547
O         7.91734341845855    6.11255273389407    2.62225318955158
O         5.79008943899257    6.10142012951375    2.27040508711729
O         0.73607066303984    4.27176300177302   13.14462391594399
O         2.86181492515285    4.08078695014330   13.45137334522294
N         5.51931668921699    5.49222324981749    6.31250908898744
N         6.84745820924415    5.49774722603608    6.50430021652716
H         7.15508403173003    5.33712316617095    7.49001312199983
N         6.76450191817601    6.02366944396017    2.98258758386496
N         3.12450152107493    4.94050101862313    9.45602629534119
N         1.79707108261234    5.04000560520172    9.28597199648661
H         1.48848187506330    5.24441474665121    8.30881881433956
N         1.88646773719866    4.28641609225127   12.76638996784012
C         1.14226912659718    4.82579136832156   10.42163155624154
H         0.07513862381666    4.85636127600069   10.51181467557745
C         6.54013965329690    5.81090715029510    4.37111899644209
C         3.34395621288986    4.65664512515844   10.72874492057997
H         4.32447405967454    4.52106242307635   11.14859970232126
C         2.10711150890233    4.57275304009177   11.39046298511878
C         5.30141693236436    5.68134770296496    5.02195675526741
H         4.32069651716486    5.72337801801780    4.58319830365793
C         7.50433657847742    5.68508971432056    5.36519915190096
H         8.57237339146008    5.72344092316485    5.28999432380480

