58
CSD_code = UPEFUS | q = 0 | S = 0 | Stoichiometry = C25H25O4PPdS2 | MND = 4
Pd        3.34235282829351    1.83307483824211   15.38307243133990
P         5.40501058652201    1.02354893092836   15.21773890508302
S         4.73621481579949    3.11569220260004   17.46354469599948
S         1.51963094439601    3.08201857805916   15.68277753060853
O         4.84035495785160    4.31518141174749   18.25421421849493
O         4.76355590020079    3.42437667683636   16.01479733979690
C         5.91336296244347   -3.40368832449148   14.12040553564875
H         6.00503323676070   -4.45292693643482   13.88249619804431
O         3.59801094718873    2.27482876721660   17.83942881716768
C         0.57855304392915    2.47360855953763   17.11502043348109
H         0.09870741839499    1.54423334876156   16.82356345561261
H        -0.16600156253724    3.20468144146131   17.40845579485218
H         1.30903353343423    2.29895197841448   17.90013155462501
C         5.04146885583359   -1.66211823398818   15.51381510843063
H         4.44519206815770   -1.32126344521480   16.35387021946854
C         7.54935584438330    0.27019562093320   16.82660041177109
H         7.75025727768538   -0.43292005499941   16.03057931365286
C         5.68528199930149   -0.70887119362976   14.72763277316028
C         6.23857367722645    2.02472849240760   13.95039511427301
C         8.34219948761299    0.29910312539921   17.93549984590328
H         9.18728648935705   -0.36936188110812   18.02128114538279
C         6.42473372913246   -1.11017206131568   13.62339019820619
H         6.90794280832289   -0.37021850637638   13.00112970232349
C         5.41382747286697    2.67687716626132   13.03534892112744
H         4.32527701016862    2.56438092689996   13.12270939635987
C         6.95842327150954    2.07514983250531   18.89081851671954
C         6.18153774788000    2.05150278533711   17.71126415551833
C         8.06516654886657    1.18309422268568   18.99838928103976
O         0.56030538935368    3.30021029530112   14.60171525803975
C         6.53780402933161   -2.45813862193497   13.32459322766091
H         7.11338178140002   -2.77055068882399   12.46587823967455
C         2.24317823892747    0.28779938693376   14.63702278675570
H         2.80436047053458   -0.35795290094901   13.95778063919179
H         1.38203892934212    0.69951012333120   14.10743889119815
H         1.89393216949084   -0.30941326010185   15.48897357053433
C         7.34835034727814    3.60669742151500   11.96533625491746
H         7.78293005245065    4.22656953068017   11.19510067067974
C         8.55318805488795    2.03488536459675   21.20260388153526
H         9.15675807812209    2.03499890329847   22.09832568587207
C         8.85035405283772    1.19188182871903   20.16918748702237
H         9.68877827108234    0.51295544578436   20.23302226946911
C         7.45776218667797    2.90627299540829   21.10398810106831
H         7.23122322203715    3.56483421033588   21.92899262560640
C         5.97113927911151    3.46436446765532   12.04462455196014
H         5.33480762133561    3.97350391971235   11.33615752610136
C         1.94961173660442    4.72214293307198   16.33579817390445
H         2.55332217762424    4.59002005808722   17.22818073602617
H         1.03225344972873    5.26336812772954   16.54183765636012
H         2.52924522154100    5.23895587264348   15.57573352389133
C         6.44936119228186    1.15173415388714   16.70655275531493
C         7.61812216981678    2.17410552224750   13.87316148996066
H         8.25733727416956    1.68264117211161   14.59370838753331
C         6.67951500183988    2.93080627529423   19.97928861502397
H         5.84752738938583    3.60858988643536   19.89352528558274
C         5.16127864438960   -3.00531385044230   15.21627576187725
H         4.66649625348511   -3.74422672349409   15.82878351188907
C         8.16848927039364    2.96489706248842   12.87867814888830
H         9.24040414354887    3.08526281981244   12.81996327236191

