57
CSD_code = UPEHOO | q = 1 | S = 0 | Stoichiometry = C24H28AuN4(1+) | MND = 2
Au        0.00081951669517   -0.00133661736466   -0.00050292598245
N         2.51514413643642    0.14387094519747    1.46969668590111
H         3.15453226924490    0.20695031696080    2.25982553660377
C         1.20812559560796    0.23244669960980    1.63649151756996
N         0.77748708840206    0.45299842621907    2.86573733827722
H         1.43624268790103    0.49049222408527    3.64017785145306
C        -0.61847063761130    0.47584869550348    3.25632208369444
H        -1.22959817278613    0.68835175748754    2.37328466883760
H        -0.77155776430540    1.26804457057212    3.99664404261594
C        -1.02189266423143   -0.80013068572752    3.82549898551453
C        -1.28725590290933   -1.86914321616313    4.29216734287686
H        -1.55377842197619   -2.79390599600888    4.71099482185178
C         3.10700061094833   -0.09648933600961    0.19206581708340
C         3.41788308064963   -1.40863215600648   -0.16746925532916
C         3.98810652999391   -1.63204854346348   -1.41338508409498
H         4.23840944246458   -2.63998148637558   -1.70695992538582
C         4.24263385500564   -0.57736321245412   -2.27171672593270
H         4.68870185485474   -0.76425282542661   -3.23591668695672
C         3.93278172289650    0.71737880655105   -1.89663272860983
H         4.13834127077893    1.53575870768855   -2.56830725226050
C         3.36215808099476    0.97955771921456   -0.65875398670788
C         3.14086298131093   -2.53897451828843    0.77545042357210
H         3.32154596012474   -3.49340481505496    0.29012124520868
H         2.10828657449278   -2.51189819553098    1.12344565549916
H         3.79018526576861   -2.47450453894415    1.64852454142238
C         3.02600214442407    2.37722818218331   -0.24056937957946
H         3.33616556093385    3.08527533097476   -1.00271116212099
H         3.52662801761932    2.63172739364659    0.69269247457063
H         1.95227953166166    2.48281341984993   -0.08482768227245
N        -2.51523725730822   -0.14360265902041   -1.46971435129140
H        -3.15467082130170   -0.20678362863636   -2.25980058011757
C        -1.20821734994467   -0.23211229898813   -1.63659345519895
N        -0.77764001193879   -0.45307716717995   -2.86575348768297
H        -1.43637284011412   -0.49066607835295   -3.64020241432151
C         0.61836921433167   -0.47630598787649   -3.25614736214808
H         1.22937399672896   -0.68890382030303   -2.37304139540351
H         0.77136911723850   -1.26855289826502   -3.99644000532456
C         1.02209430468365    0.79958744453569   -3.82530081408098
C         1.28730957271570    1.86851441803147   -4.29221286067179
H         1.55416646150478    2.79333634972366   -4.71069562479179
C        -3.10704604949825    0.09672206821804   -0.19207281034938
C        -3.41789079234013    1.40887437623159    0.16742984489712
C        -3.98804522476166    1.63233421377851    1.41336129364916
H        -4.23825786487077    2.64028754003061    1.70693687292776
C        -4.24258241426065    0.57767045480996    2.27171853837506
H        -4.68859011040453    0.76459804203134    3.23593742354828
C        -3.93283997069363   -0.71709983530749    1.89663174954966
H        -4.13843955159353   -1.53546405581547    2.56831293473421
C        -3.36227486994631   -0.97932346190260    0.65873790673532
C        -3.14074448490691    2.53916587624447   -0.77550954070320
H        -3.32125196788489    3.49362633911869   -0.29017609473948
H        -2.10819439639615    2.51192669160346   -1.12357822475086
H        -3.79013465342955    2.47478208649159   -1.64853969954141
C        -3.02621927274616   -2.37701593729631    0.24054709139042
H        -3.33644682855124   -3.08504439067854    1.00268122555327
H        -3.52685549280841   -2.63147591706578   -0.69272046627251
H        -1.95250065689372   -2.48267481708408    0.08481606870908

