35
CSD_code = UPEHUT | q = 0 | S = 0 | Stoichiometry = C12H16Cl2N2NiO2 | MND = 4
C         4.71545485817750    7.52535123845456    1.30992235749953
H         5.37613752963277    7.56277232842636    0.44618225232754
H         3.68878044135155    7.58719938106244    0.95461747703524
H         4.86219007834224    6.59068365690856    1.84357893092312
C         5.01335764455376    8.67064720807303    2.24369660221629
C         4.89501668596490    9.98538064560736    1.79452863920705
C         5.15977494427907   11.11620195011109    2.59265919777937
C         4.85238623613407   12.48158999192123    2.04303650738281
H         4.24202752145940   13.04289592001866    2.74821056124571
H         4.31700621658603   12.40379186240445    1.10316171033711
H         5.77420459637994   13.03526912208900    1.86638862320472
C         5.88072182795375   12.20090438204405    4.59125671062480
H         4.91370687120637   12.55492241839416    4.97443952411201
H         6.32540195788080   12.99781145036966    3.98541620609964
C         6.81157118367989   11.88543666481296    5.76335919417978
H         7.85581898214818   12.02635020834920    5.45189469318324
H         6.59932877165925   12.57745538477119    6.58552942024787
C         7.08788217591896   10.12479317397434    7.34897971953501
C         7.76775975574208   11.12595839995242    8.24135004899802
H         8.54295308779771   11.65643246043679    7.69135604181037
H         8.22084339499713   10.63209325501617    9.09399817013640
H         7.04648421979906   11.85404729432058    8.61181070098213
C         6.96468246042947    8.79242579244892    7.79105000992316
C         6.47527541463900    7.75246629669982    7.00162921369891
C         6.37180156925239    6.35970937302753    7.56905817027503
H         5.96402729726409    5.70050505576748    6.80813286830138
H         5.72443317103729    6.35646236180777    8.44354131900370
H         7.35436095291374    6.00430748724575    7.87308768958282
N         5.66650083956079   10.99235224283644    3.80352221127667
N         6.62034514871109   10.49928976509130    6.17450938367738
O         5.34491594244213    8.36868619766977    3.42544831947117
O         6.12102158786860    7.90329723745325    5.79773698246579
Cl        4.37936106271501   10.20573830315578    0.13989666656091
Cl        7.45009826434710    8.38150664331416    9.41813797953656
Ni        5.93866730717482    9.44236484596386    4.80047589715964

