70
CSD_code = UPEJEF | q = 0 | S = 0 | Stoichiometry = C33H33ClP2Ru | MND = 8
Ru       -0.00291976028789   -8.22928544467071   17.73125557437644
Cl        2.31143942323961   -8.68932485370422   17.35748652438432
P        -0.28978352072609   -7.75909157169346   15.53561781115684
P         0.76923461710991   -6.15048291773113   18.09007928427444
C        -2.04427276559240   -8.85479482861666   18.41254761548322
C        -1.33981761361931   -8.34270919212592   19.52677896532494
C        -0.19733261730798   -9.15690062134833   19.74497426251906
C        -0.23159399194141  -10.20861190587864   18.78917434290502
C        -1.35381762429942  -10.02337884513870   17.96037721720168
C         1.02138373750162   -6.68929217626332   14.74650468748758
C         1.25404532871767   -5.35168825474215   15.46879902118634
C         1.93639934189932   -5.48281824333297   16.83000062783792
C         0.80088350987727   -6.47897497410993   13.24872406068475
C        -0.22579529107529   -9.20896111001101   14.42389674182122
C        -0.96890943265712   -9.30412834667272   13.24935500922743
C        -0.87055606404745  -10.43339970178514   12.45728942786459
C        -0.03171482240891  -11.47390981197427   12.82360099243996
C         0.71407500918354  -11.38178421238540   13.98674216261185
C         0.61585246472660  -10.25604492734370   14.78473304003933
C        -1.93164208869268   -7.08280288732065   15.10327317657010
C        -2.22569336429784   -5.76014512067729   14.79336197616293
C        -3.53778455124754   -5.36007915205803   14.60166818521581
C        -4.57445369664179   -6.26755246466075   14.72555297631242
C        -4.29454687085240   -7.58827610805259   15.04202412194237
C        -2.98724049686320   -7.98735549249308   15.23291580028019
C        -0.42881940693656   -4.77898613148951   18.19472936599238
C        -1.76444224867708   -5.03627088586997   17.91809171080818
C        -2.69682566976680   -4.01452282500729   17.95231698667735
C        -2.29624908453480   -2.72821290507324   18.27126874810514
C        -0.96544642420912   -2.46708461552743   18.56221459148825
C        -0.03279350440830   -3.48628943190294   18.52487149521606
C         1.68244895481140   -5.97244494236391   19.65022068721868
C         0.99897930189487   -5.59278582224755   20.80329425089907
C         1.65335200535358   -5.55388528539539   22.02005205079121
C         2.99128516598916   -5.90574229632768   22.09947189462888
C         3.66986116015511   -6.30461970337008   20.95949221850748
C         3.02094073316657   -6.34471336197598   19.73862029330883
H        -3.02479479529671   -8.53643537738143   18.08236218078518
H        -1.66570756982341   -7.52879808245128   20.16203371931010
H         0.46954218113537   -9.09666357795295   20.59533372191679
H         0.45325328257098  -11.04629413558194   18.75233253664540
H        -1.71481326433085  -10.72434873236170   17.21821174962907
H         1.92280794860952   -7.30905970991474   14.88437210962968
H         0.31152828783474   -4.81516661434154   15.60445606766043
H         1.89219085926483   -4.73769828238216   14.82446881792835
H         2.28895784498710   -4.50299566682369   17.17065095419855
H         2.78548626762337   -6.16759301980536   16.76146305166409
H         1.63875593118298   -5.92471769114741   12.82807620093675
H        -0.11105776774568   -5.92018411152915   13.05256216855802
H         0.73688441894604   -7.43398126512117   12.73280702521347
H        -1.62756243337784   -8.49809676413616   12.95705967501850
H        -1.45165197850179  -10.50155959323676   11.54863575408775
H         0.03833100304362  -12.35450076030893   12.20170379541921
H         1.37144387399556  -12.18911121905697   14.27449168655912
H         1.20004028602848  -10.17583485958408   15.69263048175944
H        -1.44039534442465   -5.02752922571339   14.69843125029121
H        -3.74846088015902   -4.32869477555357   14.35756607426491
H        -5.59619821764992   -5.94973939164327   14.57846288129173
H        -5.09846917191473   -8.30368280794716   15.14135273726162
H        -2.76347781825809   -9.01789215578088   15.47805379607389
H        -2.05910375672424   -6.04999274335135   17.67351542342661
H        -3.73321300441901   -4.22288614939369   17.72913883428633
H        -3.02024192740372   -1.92701586132421   18.29948188067799
H        -0.65675756045854   -1.46420133686020   18.81984896699607
H         1.00284145599620   -3.28634505644070   18.76481560310794
H        -0.04739238865723   -5.32292236786342   20.73893651329454
H         1.11825126399690   -5.25361140715808   22.90977810564404
H         3.50097647873571   -5.87784039624622   23.05159064053798
H         4.70886759545662   -6.59342113297324   21.02295845975670
H         3.54230905719957   -6.68913435729313   18.85813923721959

