70
CSD_code = UPEJIJ | q = 0 | S = 0 | Stoichiometry = C33H33IP2Ru | MND = 8
I        16.67794839071100    3.39274144936496    4.97683195841555
Ru       17.57490027978675    4.31208036900680    2.59819264355583
P        17.70285360618762    6.36596993811915    3.53065491728063
P        15.43843638996451    4.67171390161692    1.94358895105631
C        18.58407922365767    3.95749753408078    0.64917483185784
C        18.21301777286216    2.67880770534810    1.16516675024221
C        18.90869438147839    2.48805660803244    2.37465997188818
C        19.70212806172637    3.63851835528736    2.63134228343730
C        19.52017320167442    4.53064184955735    1.54298340219563
C        16.18982563448841    7.05114978200761    4.37419044985597
C        15.04826751092607    7.13301894955644    3.35417979723603
C        14.41034597017198    5.78809331584167    2.99662825936683
C        16.42373456527474    8.41833772465937    5.01266941293812
C        19.00903045952582    6.46298525025706    4.79223741113824
C        20.32460872787856    6.64746473254547    4.36874272624042
C        21.36557822276747    6.60718011507988    5.27594580267392
C        21.10756010232502    6.36782557431219    6.61638747492514
C        19.80549800267705    6.16599014465600    7.04198045467818
C        18.75901675225542    6.20751389269986    6.13804993476009
C        18.13728057609470    7.73892301587903    2.40985201112924
C        17.79141430460186    7.60405713172641    1.07014540771957
C        18.04482272360610    8.62125347129430    0.16865731040944
C        18.66090897922634    9.78365531618579    0.60090246795991
C        19.02297238885270    9.92067834652338    1.93207404922580
C        18.76283426322219    8.90748278656758    2.83663200594635
C        15.17546924912466    5.28264885773122    0.23783949834984
C        15.51061262289252    4.38382804498672   -0.77367830063666
C        15.40642627811175    4.74213331404477   -2.10277260535295
C        14.96591037561962    6.01198001001682   -2.44213639739747
C        14.61912996885524    6.90738281131569   -1.44560522526481
C        14.72107995745882    6.54846566254837   -0.11210935376253
C        14.30988321307178    3.23545000603711    1.82535543496392
C        13.01826639165695    3.40241029457763    1.33020442775072
C        12.17510789802092    2.31526073149320    1.21140432886029
C        12.61222700324062    1.05063381032097    1.57490444116391
C        13.89968760176072    0.87562076878595    2.04995634553863
C        14.74611251375766    1.96380242508350    2.17005193599489
H        18.33789255257378    4.33650023248900   -0.33521778064147
H        17.63868463340760    1.92651205676860    0.63898722053472
H        18.89942755850315    1.58757377421882    2.97712450979158
H        20.44573823688737    3.73032166013155    3.41331045413997
H        20.08071584539049    5.43983936548048    1.36203824104224
H        15.92058929557667    6.32868032751920    5.15529380291648
H        14.26439717757419    7.77183716869559    3.77519461629556
H        15.42803386646655    7.62864231401712    2.45478477627054
H        13.45788634661184    5.95310906764548    2.48132753355165
H        14.20082532158171    5.22014811233646    3.91200230451502
H        15.56069818198937    8.69049116348845    5.61868849980272
H        16.55929562725112    9.18343228628845    4.25008915983139
H        17.30009862766507    8.40747295914471    5.65747667935332
H        20.52875846594410    6.83014088416305    3.32123285585749
H        22.38077133923172    6.75606890484404    4.93597169714302
H        21.92222707767361    6.33054024559529    7.32445331183192
H        19.60076400683814    5.96468034458688    8.08278606359374
H        17.75264399343293    6.02362218461009    6.48235755101590
H        17.32373604861922    6.68348165429669    0.73934902562685
H        17.76444344007412    8.50352790151125   -0.86831323629324
H        18.86593436247547   10.58057190946209   -0.09872287248230
H        19.51131261970592   10.82420251492205    2.26766284886798
H        19.05724601302197    9.01798573882372    3.87057605081922
H        15.84339613598227    3.38981967978144   -0.50121229706844
H        15.66758106689833    4.03402384375591   -2.87616853157338
H        14.88838554930647    6.29896343045145   -3.48046195794722
H        14.26519337618541    7.89486263006857   -1.70544591141913
H        14.43913059571761    7.26186040292239    0.64707370562110
H        12.67858681044842    4.38308954924322    1.02483749964776
H        11.17332733343530    2.45236268140240    0.83027539649010
H        11.94896207850565    0.20338199845271    1.48122135124053
H        14.24691561180664   -0.10800674752314    2.32959736964664
H        15.75195723769485    1.82340576325839    2.54214484564498

