70
CSD_code = UPEKEG | q = 0 | S = 0 | Stoichiometry = C33H33IP2Ru | MND = 8
I         3.66141117353926   19.52558221127027    2.02495604451644
Ru        6.27013090514925   18.84367851831673    1.82891214228765
P         6.49440750372314   18.36418915753399    4.03976440307416
P         5.56029509485785   16.73721739260679    1.45589980878568
C         8.36455223918165   19.37891132111123    1.28306742652003
C         7.70146158112399   20.58734430441105    1.65786274672192
C         6.65008999335114   20.79663401096091    0.74794469042003
C         6.63849616169994   19.72474341231785   -0.18995791461307
C         7.72281358267379   18.87204686203960    0.12675156912703
C         5.18508950342630   17.25850535407637    4.79190373546022
C         5.01818153122566   15.91422952547414    4.06070395498916
C         4.38415274945626   16.01029243423940    2.67437417678953
C         5.35367856208861   17.04028496155811    6.29530594828483
C         6.46389397141779   19.78993507333140    5.19152307461923
C         7.08661055720822   19.73843555604529    6.43880831426352
C         7.05510445908015   20.83525413036116    7.27826874789457
C         6.40891181852579   21.99792450825918    6.88770620181876
C         5.80084473132991   22.06164670803791    5.64668470537568
C         5.83299734630793   20.96531448454977    4.80270795715244
C         8.13262790977933   17.69179779852408    4.50997597751855
C         9.17814764871381   18.61481221970340    4.43620549530115
C        10.48399597974442   18.23506280566236    4.67075987376586
C        10.77447943661637   16.91573561048068    4.98248870153961
C         9.74824420371417   15.99181154609440    5.06100655391241
C         8.43789456590941   16.37207080370527    4.82251783018539
C         6.80146190849359   15.39948631126919    1.38230329787468
C         8.11862093249696   15.66920477306838    1.72544774433915
C         9.07061050855104   14.66529249178155    1.70174900480390
C         8.70883782453174   13.38332991618662    1.32610419620521
C         7.39701284177058   13.10942074014538    0.96778369559056
C         6.44530610842020   14.11053267750652    0.99397117736658
C         4.71595728744022   16.49095083505370   -0.13673879156513
C         5.50145797668247   16.27768562773493   -1.26822087232153
C         4.91842790022647   16.17876387442085   -2.51635376982408
C         3.54441968519006   16.30205542622914   -2.65007165308661
C         2.75926434704544   16.52261892708455   -1.53119840155854
C         3.33794039020712   16.62057382685002   -0.27822526450436
H         9.30623422717400   19.02806791386551    1.68710186881305
H         8.03988588756071   21.29126928241564    2.40834225286484
H         6.00473143072513   21.66605912306512    0.71214674406641
H         6.02837727043733   19.67504816002585   -1.08350000448683
H         8.06762663995472   18.03522951615177   -0.46770136588621
H         4.26339042892278   17.84410247629815    4.63969067064587
H         5.97969142139639   15.40491050057954    3.96157077033267
H         4.37603129042294   15.28199128347453    4.68309610725651
H         3.48191229774790   16.62559111036101    2.71560405335550
H         4.10951325838002   15.00909903912042    2.32276305796403
H         6.29262514037882   16.54293149212409    6.52790995608529
H         4.53855977633018   16.42027412526352    6.66633533834128
H         5.31965254000181   17.98749091552363    6.82761825845876
H         7.60836434522916   18.84364042968481    6.74804037869818
H         7.54010039620027   20.78316090881073    8.24254812853840
H         6.38800975431469   22.85204680879773    7.54829811972117
H         5.30131983165946   22.96529119330068    5.33054931693359
H         5.36288469241768   21.02835110575500    3.83231369223254
H         8.95053837192437   19.64748153820620    4.20290953849092
H        11.27791367363703   18.96575331487992    4.61017305943946
H        11.79490445324098   16.61274676775353    5.16498377000481
H         9.96411021363245   14.96214945520635    5.30756869576450
H         7.66480218914181   15.62353054880140    4.88818560258497
H         8.39117653671481   16.67636728481310    2.01421507897868
H        10.09202613110356   14.88598614749514    1.97682176856625
H         9.44842161605116   12.59636270248778    1.30543112100176
H         7.11805203599457   12.11052980792300    0.66495189598455
H         5.42566287571606   13.89999819192723    0.69944139592613
H         6.57458905276819   16.17829099376724   -1.16106467378327
H         5.53572843659732   16.01018463060127   -3.38734397704029
H         3.08887352265962   16.23186438976007   -3.62685507365961
H         1.68936321345768   16.62799349308386   -1.63189282262639
H         2.71489612715308   16.81192921064627    0.58195474741907

