95
CSD_code = UPELEH | q = 0 | S = 0 | Stoichiometry = C43H47CoN4 | MND = 4
Co        1.64150653239061   10.83738495398413    4.29719933947270
N         0.88190987929523   11.85240675249136    5.68031454517308
N         2.22142407002269    9.86528754556469    5.60106383627754
N         2.33918324247172    9.54797014894582    3.24499513462418
N         1.66155252060811   12.03535039351751    3.02147078379947
C         0.86673148838263   12.16156768968772    8.13620398725794
C         1.24837601853144   11.47247682721511    6.89877978413834
C         2.07800831012659   10.30617577758968    6.88548562962336
C         2.69968034283832    9.62971133437041    7.92900886964342
H         2.52536065132603    9.92505219915472    8.95148246174086
C         3.56708383824681    8.58703567587889    7.63006188120126
H         4.08208854076841    8.07357819405946    8.42784561372723
C         3.80551420589308    8.22413897591288    6.31075103953120
H         4.54007186568438    7.47044604341788    6.07650945559565
C         3.09259521611623    8.85237296971286    5.29452674243116
C         3.12642838782474    8.67042085811325    3.87642838355048
C         4.00119478288636    7.70793801782815    3.20544839564996
C         0.08164822889529   12.99437160820017    5.48200620541521
C        -1.25136205586521   12.82370086888645    5.07160420352755
C        -2.00676181208346   13.94212539765196    4.76065981619534
H        -3.02780100272748   13.82451298557206    4.43262088302461
C        -1.47197557177586   15.21297422527564    4.86376001210364
H        -2.07283700467798   16.07583604858067    4.61664371094394
C        -0.16801855713175   15.37395839921147    5.28577593070574
H         0.24150436924630   16.36954096395313    5.36741475316623
C         0.62705219551090   14.28061855086523    5.60272192482616
C        -1.84637576469606   11.43767100926253    4.95362987815623
H        -1.22810384189064   10.74572103671413    5.53685684455871
C        -1.80017957775953   10.98355257949313    3.49198682686500
H        -2.32625661862155   11.69103170497723    2.85476458243234
H        -2.26547379726368   10.00556483780751    3.38588153516718
H        -0.76010563380695   10.91830785896299    3.16108269273924
C        -3.27582496954230   11.36302709987597    5.49461944991932
H        -3.34472530466796   11.81416835142447    6.48277572381654
H        -3.58629927995447   10.32287495891941    5.57041829681523
H        -3.97479450409483   11.87210223693626    4.83581381695007
C         2.05760128998436   14.50819476874965    6.03802776037611
H         2.50747409274109   13.54783210434096    6.30436096762366
C         2.11363152052916   15.41919622428034    7.26694714319580
H         1.80965961903254   16.43205187340461    7.01466180617723
H         3.12818233650161   15.45721039688050    7.65824565757209
H         1.45566162145530   15.04830127675518    8.04921575287265
C         2.88600320881095   15.10205297825744    4.89556916398628
H         2.45548773459129   16.03727372918881    4.54464765157282
H         2.92939505371057   14.40415987765949    4.06323331319016
H         3.90219545575988   15.29564832084953    5.23335403015206
C         2.04659168860749    9.44549159938260    1.88450846218944
C         1.59720702652527    8.24001528617099    1.31149012753586
C         1.42559604408702    8.18277710793206   -0.06285750514580
H         1.09113673258532    7.26446788752810   -0.51942099569462
C         1.67356392486577    9.28132952449959   -0.86120934629886
H         1.57361060082396    9.20826624918030   -1.93400619376948
C         1.98458235129549   10.49549568517921   -0.27678675367562
H         2.10029079200168   11.35827517163689   -0.91161819294166
C         2.13138602786278   10.61050552282101    1.09584419673833
C         1.13206166209345    7.07304093846340    2.15427518284862
H         1.49944737477678    7.18294857690903    3.17590497922063
C         1.60944840891713    5.72201943496591    1.62043473782568
H         1.08722278276007    5.45411808660231    0.70545128006996
H         1.41498101714194    4.94381448332510    2.35551107104915
H         2.67703224559496    5.74407825797095    1.41636076728070
C        -0.39944835277637    7.11827824583823    2.21778045605350
H        -0.72528450693458    8.05990679405230    2.65443363814490
H        -0.77473901157967    6.30061210922472    2.82989039618629
H        -0.82900149712922    7.03350803946875    1.22202192340788
C         2.36903694710632   11.96485427173937    1.75455958749320
C         1.87900098230334   13.12006179472114    0.86529965578181
H         0.84252154974494   12.96032582082628    0.57717686716798
H         2.48964168460725   13.22845685461130   -0.02691879568077
H         1.94188194443264   14.05419687410439    1.42259798699109
C         3.89265239276906   12.13747975409723    1.97137764156374
H         4.10564465976594   13.13443601896058    2.35188965297232
H         4.42596029255829   11.99851036774608    1.03300012953252
H         4.24797014538742   11.40896166648325    2.69762246847820
C        -0.45690471601848   12.51587682192897    8.39214469016620
H        -1.22388353297249   12.26864567660999    7.67593914128323
C        -0.79533685321161   13.16365015663553    9.56499369575337
H        -1.82570308460331   13.43044370103612    9.74960331996747
C         0.17749362358162   13.46897716902991   10.50231259634723
H        -0.08966032384864   13.97588706429299   11.41765270564061
C         1.49676924520443   13.12523020475156   10.25648786801922
H         2.26250423914631   13.36966294307654   10.97842645805419
C         1.84074930193146   12.47956459667274    9.08425852449498
H         2.87596860863247   12.24721659124129    8.88227664476883
C         4.17099295006398    6.41540368938188    3.70593804828170
H         3.59545833611601    6.09428977028064    4.56135848533786
C         5.03229165780423    5.52881897794005    3.08865769647885
H         5.14943703736641    4.53097950015376    3.48624570173734
C         5.73416306492178    5.90964352894694    1.95676549361885
H         6.40449717690257    5.21426182171265    1.47377282504587
C         5.56395694957631    7.18548185907699    1.44371594126243
H         6.10416120065987    7.48816932762397    0.55857381340279
C         4.70836133445696    8.07721676651439    2.05961056688567
H         4.59321267191221    9.07298395516080    1.65928016035667
H         1.39846387855687   13.00356682311044    3.19389598028707

