70
CSD_code = UPIGAC | q = 0 | S = 0 | Stoichiometry = C28H30F3N3O3S2Zn | MND = 5
Zn        6.28362619211347    6.29705042643341   28.57049842390744
S         4.83586840015767    7.33502352307091   27.09857818678978
S         6.25775521142049    4.89879808691703   30.96162677370704
C         3.96454405773422    5.87797827884072   26.74492038610073
C         2.68667964316060    5.99161056202600   26.19224402311541
H         2.30290102358067    6.98333706238182   26.01244558160363
C         1.92826015248057    4.87713319627448   25.91760963963693
H         0.93685889829024    4.98765006474302   25.50462530940661
C         2.42345651823974    3.60798374819026   26.20671365385137
H         1.80964212808072    2.73551778359877   26.04085901980976
C         3.69432806171272    3.46453681027325   26.71375538609386
H         4.04842595355907    2.48587805342357   26.99329811208215
C         4.50633405639287    4.58230399963888   26.95940550713350
C         6.67116102593966    3.61892466670749   27.40733981819008
C         6.60267028712368    2.33924153820915   26.63609935750717
H         5.91417205611345    2.44018361972784   25.79937042234527
H         6.25800764124666    1.53047500675274   27.28036318075641
H         7.58814429708388    2.07878839045994   26.25560920444015
C         7.89214091313694    3.92506340047524   28.16079564555157
C         8.85606486381788    2.99093658294444   28.54692484687120
H         8.76898040151836    1.95474052792934   28.26536356533671
C         9.89405525869436    3.41593755554139   29.35701459708795
H        10.63791696191933    2.70858378750511   29.69314804866635
C         9.97196998073568    4.74141583953232   29.76203876079979
H        10.75690095207268    5.06794774779406   30.42284605079485
C         8.97821631232857    5.61518141003867   29.32967670830124
C         8.87661591143500    7.04181331804848   29.69163871370899
C         9.97690336392823    7.66047535007094   30.48635115190938
H         9.85742287805291    8.74107393309940   30.52389696464157
H        10.94786269153490    7.41267913557529   30.06210428749805
H         9.92813985601052    7.26244247244599   31.49961288856440
C         7.63796511896706    9.04168699404193   29.44886321845128
C         7.23232336064605    9.58747479655120   30.67165374853324
C         7.02953266448317   10.96012809949169   30.74165828476993
H         6.71217466129166   11.39967374653825   31.67432870247287
C         7.22888537332773   11.77231455764110   29.64333936524901
H         7.07886995467205   12.83855044661972   29.72428223989323
C         7.60920022493360   11.21552854866025   28.43683671414260
H         7.75541332431793   11.85419267698754   27.58041043194294
C         7.80408773995399    9.84887095982527   28.31383433538029
C         6.93486529397718    8.72289356313838   31.87354401680519
H         7.24683917459895    7.69466562193704   31.67653224332582
C         7.66860269146942    9.21109097800057   33.12544143848817
H         8.73249355338194    9.33412424052449   32.93151529726465
H         7.54564177222807    8.48381483776153   33.92407286147478
H         7.27114209456855   10.16278075651027   33.46971175017148
C         5.42108121174732    8.70756027471030   32.10764367260308
H         5.18799143699346    8.11862891448587   32.99060308319269
H         4.91958732839654    8.25768763582432   31.25349412350538
H         5.03871325732163    9.71683085001854   32.24660188373436
C         8.24664819368021    9.24629551411357   27.00014166284592
H         8.09795147144167    8.16120062350887   27.05157521705361
C         9.73745493669168    9.52108201892411   26.78127224301911
H        10.07023470324433    9.07378737719091   25.84743875133307
H        10.32917470044452    9.10487476672050   27.59435002106246
H         9.92274956001677   10.59203503991915   26.73656492827104
C         7.41652465386076    9.76167428298460   25.82534056873330
H         7.58549538650161   10.82027111208948   25.64821847015586
H         6.36016601627168    9.59634835144183   26.01992315825425
H         7.68625508786294    9.22031347518019   24.92162148865348
C         5.18671343583237    4.55645414581313   32.46307559169495
N         5.76829614433983    4.53006064864335   27.47911190467648
N         8.00788029924709    5.19358310248128   28.53502241520588
N         7.84015653983136    7.65869929678964   29.28013990840869
O         5.47145058630448    5.91388839499347   30.25480778354396
O         7.49421439516677    5.39880049457192   31.49659191541262
O         6.32496443148141    3.63424546505066   30.29091683926400
F         5.10570975408536    5.60665746197627   33.28097412854846
F         3.94875181803544    4.22777179050710   32.09659390800795
F         5.68637169877434    3.53815225918145   33.16897746825329

