87
CSD_code = UPIJUZ | q = 0 | S = 0 | Stoichiometry = C33H46MoO2S3Si2 | MND = 9
Mo        2.89657365676578   12.44275246052250   12.68801808295159
S         1.53308687985783   12.46921282242621   10.96605985411586
S         2.21109349354855   10.14788383394267   13.34443274298295
S         4.75937730777373   13.49852683213567   11.63565223108502
Si        3.82792891515033    8.75207967112676   13.16755954987364
Si        4.81674507645137   11.07933246854249    9.59040752137073
O         4.93903661019833    9.71275514125336   12.36396638721034
O         4.80874511425358   11.55656576774092   13.64528703385071
C         4.82556750581631   11.02988211878150   12.50323153112702
C         4.60092993129294   11.78217058688061   11.33994367573464
C         4.57002415334233   12.56916451945004    8.42912542949074
H         5.31210490397396   13.34306583002238    8.60367668335928
H         3.59019741073521   13.01393337949476    8.58638382636570
H         4.63766919756939   12.26770158852559    7.38943870134874
C         6.59232828990547   10.38540390305079    9.49106074509262
H         6.73267157220680    9.57184067033920   10.19616812852385
H         7.33467773221493   11.14788451128027    9.70934867757722
H         6.79279074095105   10.00182984049385    8.49647787086893
C         3.51860863280279    9.73352607856729    9.23587664547041
H         3.54211766760254    9.44916720505299    8.18876557675399
H         2.51731176941280   10.09776462621839    9.45486757244743
H         3.69201388298619    8.83806785389649    9.82548329740677
C         3.60633463147548    7.29287403252066   11.96591490543999
C         2.40645231384751    6.97631951311227   11.31039282493519
C         2.33728602962259    5.84366422142967   10.50975247508184
H         1.40818317323493    5.61682687410535   10.00583577055390
C         3.41991368284110    4.99847528069635   10.33328352549059
C         4.60182861685402    5.31723800003984   10.98222456030357
H         5.46386504017699    4.67658848663096   10.85732557864662
C         4.70517995302120    6.44034802112926   11.78740178042979
C         1.17237225064304    7.81678138527300   11.42133754232319
H         0.79062059099705    7.81731811349099   12.43983163802842
H         0.39512090413578    7.43489898332461   10.76402074780683
H         1.37120565305679    8.85118538859101   11.15143488728541
C         3.31035480230139    3.77047065601899    9.48294272131825
H         2.95623451061938    2.93314913454347   10.08539006297099
H         4.27725437613748    3.49976734396260    9.06525148236949
H         2.60289081249216    3.92318644440192    8.67122284779025
C         6.01845909133770    6.72081661391732   12.44983165722152
H         6.79443111589181    6.06682211578262   12.05806539441128
H         5.94341246012478    6.56029036228748   13.52477972455571
H         6.31268105415072    7.75256457541719   12.27680052350828
C         4.29822682682624    8.15883922342115   14.91545397859463
C         3.38287113444880    7.30706451900401   15.55545500243151
C         3.65810196239178    6.80144295133311   16.81437475214568
H         2.94069977833972    6.14768544909106   17.29072201544345
C         4.83439990533785    7.11419150274975   17.48052782386778
C         5.73454787432292    7.95292679527708   16.84750440798660
H         6.65850891842953    8.20834203305375   17.34824753054648
C         5.49053420079503    8.47608467433921   15.58349369435840
C         2.09492992493242    6.92887030900111   14.89480045218044
H         1.54999541559035    7.82016497948826   14.59167294365074
H         1.46989720142950    6.35087863057354   15.57116742146212
H         2.28643335585306    6.33385241647148   14.00375925127135
C         5.10835001217034    6.55350102862652   18.84220893032352
H         4.33707234701328    6.86995258209943   19.54350661132587
H         6.07438332363115    6.88480764226443   19.21462537683737
H         5.10112847598866    5.46464927908675   18.81090942853889
C         6.53484422512244    9.36468358591758   14.98205785856713
H         7.33621270476714    9.55090386145526   15.69406064988666
H         6.10498601901878   10.31961732303796   14.69054472876547
H         6.96586619670770    8.91234364688790   14.09066222543520
C         1.25532313790798   12.96459645535098   14.34929237958533
C         2.54802576164147   12.89688620663101   14.97208391766838
C         3.33484493246681   13.94789692984433   14.45667682832679
C         2.54510759893897   14.65700300668637   13.49276486594296
C         1.23503853209940   14.10505086223597   13.51063280109710
C         0.05353634490369   12.16759861396027   14.74801295796427
H        -0.41019249270359   12.61214399226282   15.63053487206031
H         0.33356666097124   11.14197262565533   14.98138159108276
H        -0.67188525337253   12.14282966523216   13.93683827138132
C         2.91741592275796   12.00294326618942   16.11029657377616
H         2.39656222781977   11.04898951279207   16.03945375206336
H         2.64359735125646   12.47731070653906   17.05474167228399
H         3.98830502613771   11.80947541299091   16.11769440763943
C         4.68234646000364   14.35105444871311   14.96087615997332
H         4.57450689905564   14.88721029865999   15.90576881269618
H         5.18991667318412   14.99899623323719   14.24890525754915
H         5.30616847345259   13.47504971985150   15.13262052272546
C         2.91106558049960   15.94283243483796   12.82155863327174
H         2.42832080797040   16.01324016204740   11.84813245783348
H         3.98608554091115   16.01699381044716   12.67200819098283
H         2.58723500013941   16.78495106073431   13.43642973000483
C         0.04734085408892   14.64254082074854   12.78892431816558
H        -0.86100195496567   14.45687167937765   13.35777534023034
H        -0.05168728884196   14.14840084020524   11.81432725036482
H         0.15148589394476   15.71146154649935   12.61994093698011

