44
CSD_code = UPIKAH | q = 0 | S = 0 | Stoichiometry = C20H16ClN3O3Ru | MND = 6
Ru        8.61495730008766    2.25540620851867    8.27838426693882
Cl        8.60433542894928    0.17088617767257    7.45675613692263
O         8.14685255369691    2.86447860885641    6.33862879476968
O         9.07643783250352    1.37455855279354   10.11060365230994
O         8.63251915192424    4.89566681349002    9.31351623998727
N         6.52181857743606    2.07353345116063    8.32434026746673
N        10.70819638303033    2.13120597930712    8.11762759656452
N         8.62457230573020    3.81317055483269    8.88996004307667
C         6.01593881756500    2.16388236909201    7.06764440409748
C         6.91431155255241    2.58491553968988    6.03929484580205
C         6.41133948667406    2.70499131945718    4.74524044657920
H         7.07775886388586    3.02621691740411    3.96019531513976
C         5.07848987278858    2.41439589595312    4.46923714804290
H         4.72788957872460    2.51235561651593    3.45221327558680
C         4.20683793742076    2.00900905517648    5.45098512380028
H         3.17614274013347    1.78556752113084    5.22398451625823
C         4.65769244320754    1.88142987854819    6.77476358512556
C         3.84832024795062    1.48280307674577    7.85829209953270
H         2.81190819331919    1.23388961947703    7.68267537330174
C         4.38292456200874    1.42739706856402    9.11372334386610
H         3.77960538713987    1.13895219200907    9.96041331719785
C         5.74054840131351    1.74206684454498    9.33254070136645
C         6.30317938432044    1.70945555754651   10.71015635593545
H         6.97059403753402    0.85389816023543   10.81433984303592
H         5.51180837260320    1.63774007170917   11.45086486501770
H         6.90179071097714    2.60101889517008   10.89841358923219
C        11.20697337247422    1.33833509701414    9.10054770045720
C        10.30484048268359    0.95423371669913   10.13976022937747
C        10.79898809083674    0.15530096028618   11.16894415646195
H        10.12858859910796   -0.13872807164808   11.96123919618032
C        12.12815297596613   -0.25729700778127   11.17437343243182
H        12.47214601781133   -0.88200777977291   11.98568648304804
C        13.00414168684979    0.10800174273689   10.18080824364167
H        14.03205407023839   -0.21897833583830   10.19615398839008
C        12.56159047488578    0.92036097676063    9.12422132188748
C        13.37586693190287    1.35979512521088    8.06034569486805
H        14.41012909511591    1.05036850851210    8.02142208133778
C        12.84855665089955    2.17694574492673    7.10152607901809
H        13.45591341016188    2.53678471643269    6.28561411060322
C        11.49363865721429    2.56644561367634    7.15313105750130
C        10.93732480577271    3.48124299527890    6.11916056903215
H        10.26004070866917    2.92981280429640    5.46681115466746
H        11.73123495622825    3.92022834716380    5.52162086202145
H        10.35034888970010    4.27226290044530    6.58653849211707

