68
CSD_code = UPIKOU | q = 0 | S = 0 | Stoichiometry = C25H34Cl2N2O3PtS | MND = 5
Pt        6.61535834674639   11.63807628882787   17.37682982709392
Cl        8.23983141091402    9.95578433601554   17.48703788441486
Cl        5.14011071621630   13.39467288791134   16.85547000546676
S         4.16339692099947   13.27594059896072   22.31263931250944
O         3.00187094789082    8.64893945995959   21.46038537521752
O         5.38691668394044   14.01987209215097   22.37876472974579
O         3.69302430326293   12.60985640620359   23.48997037761580
N         4.37573046439520   12.10716623265300   21.14218730845514
N         7.75317112057384   12.38374900389153   15.91076619852397
C         5.06764301992991   12.52890209062912   19.93965845715687
C         5.79102196351149   11.31521333057954   19.38646601890690
C         5.12156065955683   10.53149747264466   18.45445574914914
C         5.16302692301327    9.03041098086133   18.36612562616907
C         3.99990850822931    8.47099659725798   19.20303378788577
C         4.19377477735212    8.56365090527306   20.70777896901155
C         3.86159728591807    9.75452672447822   21.51201415481280
C         3.34479072886013   11.10127202292698   21.03132502942169
C         6.88172352223406   10.83678684649720   20.30680691636476
C         5.23358946303843    7.60705668638575   21.25836759509362
C         2.86377930892255   14.31902768356917   21.66410550477202
C         1.56272207598090   14.13155273686846   22.09022830137672
C         0.55195965039762   14.89707148844564   21.53796120652125
C         0.83331918874013   15.84531398193341   20.55768500907270
C         2.15085880755633   16.01837074075601   20.14749806112676
C         3.16810977986321   15.25786109106949   20.69789406522770
C        -0.27321461637655   16.65419575530157   19.95535259343380
C         7.55999006807151   11.98473009874585   14.65129016909694
C         8.32808559012211   12.50463853080483   13.62118429035803
C         9.30974442883468   13.44992299795223   13.89067450196928
C         9.48169890006410   13.83793690188358   15.21537255332824
C         8.68989170399287   13.28878699232924   16.20964024982844
C         6.49365968214955   10.96563457860147   14.42224386725964
C         8.83392248377785   13.65825286399294   17.64947912352611
C        10.16638453995038   14.01763898161140   12.80820636744705
H         5.76588651314645   13.30334997946531   20.26133125803339
H         4.36310334512646   12.94689087063227   19.20989751428052
H         4.17724086879215   10.93669647546937   18.07848889788876
H         6.11104641826353    8.62523677208494   18.71197624963639
H         5.01874621773008    8.71368691697725   17.33030132879709
H         3.87091030238436    7.41325998260495   18.96093302410454
H         3.07238546991685    8.97924526859660   18.93252545853549
H         4.38051939678441    9.86637736404545   22.46458473639120
H         2.53044752592908   11.38427567450126   21.70435140055523
H         2.95008287525894   11.05073645169127   20.01344962921262
H         7.64769123030396   11.60773333665746   20.39938532578836
H         6.45967150232277   10.68371951790130   21.29834502249962
H         7.34981607132771    9.92177885593226   19.95931731397159
H         5.23605909680802    7.64099653504203   22.34436418407579
H         5.00411393437564    6.58984197419492   20.94790036432979
H         6.22321265785165    7.86992343041904   20.89575646946101
H         4.19457339924501   15.39685315277620   20.39963611811966
H         2.38382442516543   16.75331210398218   19.39121658153345
H        -0.46701568056257   14.76160196061938   21.86993642832675
H         1.36555134119862   13.40460816355347   22.86250309764422
H         0.11983030283924   17.50152570881009   19.40024322538541
H        -0.94679376504983   17.01849437197609   20.72812643226270
H        -0.85501031040086   16.03665580904925   19.27116810643986
H         8.15622708123355   12.16992564528204   12.61017842722014
H        10.23203541552657   14.56831638153443   15.47479984229168
H         5.53787965319524   11.34863106785417   14.79017908316106
H         6.73580450214490   10.05610574765852   14.97816906879989
H         6.39866501467721   10.72353573764702   13.36755999996989
H        10.31077173910385   15.08587704610473   12.95342811201585
H        11.14728993396414   13.54278672412692   12.83140487011162
H         9.72590297229086   13.84534265604312   11.82998255656983
H         9.58384658258058   14.43242241752138   17.78526390822545
H         7.87568195449579   14.01706493161765   18.03598329384263
H         9.12774265328109   12.77428457969627   18.22141348317152

