40
CSD_code = UPIPAL | q = 0 | S = 0 | Stoichiometry = C15H21CoN2O | MND = 7
C         8.52642596805412    1.91191877772297    5.33324687971652
H         9.55014363840213    1.57374431406349    5.39933753438645
C         7.55729294442528    1.44763062058291    4.44329409206909
H         7.67598108168254    0.66945804311616    3.70577288929924
C         6.40439927281867    2.27015835241444    4.60658581073280
H         5.52988169133991    2.23673402458760    3.97308189243285
C         6.72471978334462    3.32757720634263    5.49756943600167
H         6.12139161463746    4.20074799118004    5.68994541367914
C         8.00434497166782    3.06522757058579    5.99992613587157
H         8.58554459622226    3.72136919200017    6.63219288788477
C         7.51185382566812    0.91652835948212    8.16104460226889
C         8.63576631259401   -0.14226810304719    9.76935608759904
H         9.25354066054055   -0.89419216147542   10.21420779875490
C         8.05974329808536    0.94921628773597   10.32200964736201
H         8.09125916381354    1.30869281828990   11.32936306990638
C         8.65555347480382   -1.17440013251141    7.49078084510048
H         8.25495697497165   -0.83202449350785    6.52619157577634
C        10.17297330123320   -1.30530514639631    7.39674129475159
H        10.62189857490214   -0.33811394426179    7.18377596930960
H        10.43333501749993   -1.99138315690317    6.59574381392385
H        10.59262613462251   -1.68689493092389    8.32494118733520
C         7.98847454035955   -2.49597199735154    7.86345384235633
H         8.34905465358653   -2.85811703487622    8.82386883725979
H         8.20472666711025   -3.24522383860537    7.10747608451763
H         6.91099914906358   -2.36235466868143    7.92062101733652
C         6.57093680265532    2.78003231544987    9.49176436156717
H         6.19494468172927    3.02194812439786    8.48757294800418
C         7.42544481624407    3.93379284274045   10.00866113578405
H         7.78922623231671    3.73311911861586   11.01399592914594
H         6.83570904747403    4.84572828098322   10.03285173302478
H         8.27956060694156    4.09175583222494    9.35475972698219
C         5.38571044184784    2.48917374861540   10.40868434101491
H         4.80876506878699    1.65656889647786   10.01367607925852
H         4.74039131220167    3.36094885977480   10.46580030348644
H         5.72047425885214    2.23963295803380   11.41326496104558
C         5.38378575506172    0.44889628059371    6.81990462445292
N         8.28936249709845   -0.14827653046639    8.44543140215300
N         7.37349504348318    1.58590094347862    9.32380263028899
O         4.50916100123416   -0.21711900015083    7.18707451062028
Co        6.77334512262266    1.39344337966877    6.45712666753828

