82
CSD_code = UPIQER | q = 0 | S = 0 | Stoichiometry = C37H41ClNPPd | MND = 4
Pd        2.56079402382107   14.64541715616512   10.47495972316247
Cl        1.73487014909728   13.08219060776688    9.07763974392522
P         2.90489112467576   16.11728724572319   12.13527828307923
N         3.56107515916001   13.16046551524330   12.26904239776500
C         4.39482466474576   13.02803339502613   11.13585947942637
C         5.33717201454627   13.92421478495959   10.63251112986190
H         5.58070022226006   14.84117167971977   11.15998366742984
C         5.99968486152769   13.56802522472256    9.46707941157302
H         6.73021345384432   14.24598660823808    9.04944228207473
C         5.74779341120115   12.35448615996566    8.83188427680776
H         6.27419520255863   12.12000452913889    7.91892932753020
C         4.83949467697186   11.45113000013627    9.34903352825291
H         4.64670500599331   10.51160206681912    8.85527764634080
C         4.15853571478478   11.78107691445071   10.51366039876300
C         3.16811464887685   11.10177064318124   11.30909746700571
C         2.53080580924121    9.87522335405797   11.19065029208239
H         2.74072820051139    9.22997496640238   10.35193543502283
C         1.62040332805148    9.50827978124418   12.16250722710700
H         1.11094121283172    8.55915197934917   12.08787155773406
C         1.34495875170537   10.34329341106357   13.24128668892669
H         0.63370174633054   10.02646041729037   13.98987460288280
C         1.95943093724855   11.57523743912374   13.37224586057605
H         1.74093621450001   12.21724056559641   14.21393407157648
C         2.86319625341077   11.95298195986629   12.39251657921024
C         3.97435708498569   13.89592021042397   13.41010295769366
C         4.56761033174928   13.20280418877394   14.46148901624479
H         4.67265769640448   12.12960635799085   14.38922396901520
C         5.02017440023958   13.87808385372496   15.57853637017952
H         5.47775980212567   13.33093642538990   16.38868078649710
C         4.89873709773219   15.25659024115636   15.64744537368704
H         5.26234143937001   15.79035737219134   16.51264763634384
C         4.30173840538467   15.95012564075624   14.61145247163603
H         4.20457547973040   17.02268348782346   14.68231834533971
C         3.81807054446446   15.28608576580340   13.48712685727269
C         1.21893366577737   16.35366481823550   12.88756108212970
H         0.67750478986564   16.96589416335703   12.15200497697614
C         0.53713217956035   14.98285997274998   12.95652644505406
H         0.57591754983039   14.48532282062292   11.96444484396567
H         1.06942847360087   14.35495629100197   13.67785537718441
C        -0.91267415452996   15.13457613499828   13.40439489594200
H        -1.46203694859376   15.72419771686262   12.66700356910630
H        -1.38482489407770   14.15244840457811   13.46582789114490
C        -0.97569444771037   15.83201791691525   14.76091007656622
H        -0.48005819444146   15.21145404763483   15.51161919891486
H        -2.01585310439965   15.95854344953566   15.06684485256320
C        -0.28639460457705   17.19190242045170   14.69591712677909
H        -0.32134459506981   17.67474811963883   15.67488784888331
H        -0.81650439024196   17.83296254960761   13.98760474538228
C         1.16768344537105   17.03949674667664   14.24993744152806
H         1.70706075411275   16.43841826862745   14.98651332814577
H         1.63892109229031   18.02383835745391   14.20190926497074
C         3.64249308889311   17.81843386954822   12.03179421039495
H         3.76170524135925   18.25583354563321   13.02930015879141
C         2.73756378237576   18.71819790967948   11.18925772197234
H         1.79004815948233   18.88665469740817   11.70535205426743
H         2.52253125085606   18.21914056269881   10.24060360914831
C         3.40295966727855   20.06381776004200   10.91248953869671
H         2.74325503891587   20.67071324056641   10.29001476751686
H         3.56040117986392   20.59660406908648   11.85425462731681
C         4.74285583021283   19.86418044184269   10.21428945043816
H         5.20869007240722   20.83062952678815   10.01290684035729
H         4.57841657876725   19.35999142499151    9.25990815992387
C         5.65904450360829   19.01377435196535   11.08669345608380
H         6.61986517295062   18.86396004754581   10.59048385609392
H         5.84758563383857   19.53250807818758   12.03033874916408
C         5.01199662347326   17.66220900407291   11.36824024227026
H         5.66678971179971   17.06777100637417   12.01413106211369
H         4.87389982466206   17.12301948957604   10.42345708958313
C         1.91344061259135   15.95943809474831    9.14907163027120
C         0.61724122239299   16.44542641531953    9.12276636624464
H        -0.12393727476186   16.07741078807979    9.82606584169905
C         0.25784675230341   17.39180757955238    8.17528918501984
H        -0.75570554334042   17.76871332755222    8.15599636252741
C         1.17837664187909   17.85960162326639    7.24696167053614
C         2.46886199114019   17.34486908756488    7.27011860626098
H         3.19135984126769   17.68521937288818    6.54056349973460
C         2.83805779807375   16.39801152904474    8.21232082858968
H         3.84903625041030   15.98855163405019    8.20503384030104
C         0.77809290499457   18.87278567567156    6.21531332918394
H        -0.02253955670113   19.50899729137203    6.58616669480454
H         0.41916471821569   18.36834232305099    5.31763018606784
H         1.62391659393293   19.49668408364156    5.93449853743084

