34
CSD_code = UPITIY | q = -1 | S = 0 | Stoichiometry = C16H13HgO3S(1-) | MND = 3
Hg        3.55647009690743   13.40350921234156    5.17911497866846
C         3.75221316152066   15.54495051827641    4.50658708506436
C         4.08077662311339   15.97586233906257    3.21838242992170
H         4.28121447682321   15.24962773753423    2.43844992818762
C         4.15851767283233   17.32311850090665    2.90042742005317
H         4.41441661747081   17.62386623437553    1.89196884798392
C         3.90890691945502   18.28284401879998    3.86463730334363
H         3.96883179154641   19.33497122194959    3.61662547759613
C         3.58221355505223   17.88348240500916    5.14858443950091
H         3.38594709922707   18.62631851602590    5.91114198280496
C         3.50579782406935   16.53560414000883    5.46224943399212
H         3.24909607433699   16.24646570336946    6.47527165950476
S         3.36820308296221   10.91196107114232    5.32571232016581
O         2.53514373544945   11.86596886573184    9.05429960672478
O         2.99559027582567   13.19476582086900    7.34991850451335
O         0.19453069187106    8.14133900821625    8.49895778711191
C         2.75488498727067   12.06179278752169    7.86603214430579
C         2.71458563313484   10.82122211114391    6.94283803733025
C         2.13104539444890    9.72155038266287    7.45632904117822
H         1.73411273902141    9.85782373880245    8.45560716879531
C         1.91281045989231    8.40825216273707    6.89433168623165
C         0.90644316438953    7.59014168900414    7.46460166594290
C         0.67417813003728    6.31814946059682    6.96959798298599
H        -0.09638509941736    5.69107448671046    7.39465427455643
C         1.42811654578454    5.82581177288550    5.91258076523502
H         1.23063383802460    4.83031002672489    5.53787141096479
C         2.41944472388690    6.60672478156443    5.35250195239336
H         3.01376469852412    6.22534385381896    4.53380924661652
C         2.65533891577952    7.87928569012867    5.84067766819819
H         3.43650319262029    8.48148555980822    5.40739717192788
C        -0.80508086820430    7.38068080658955    9.11260444328559
H        -1.21704326131916    8.01437386919098    9.89790714428032
H        -0.40440202202578    6.46441702434681    9.56408641305559
H        -1.60532087033459    7.11380448210835    8.41094257759299

