82
CSD_code = UPIZOK | q = 0 | S = 0 | Stoichiometry = C35H38Cl2N3O2PRu | MND = 6
Ru        0.96546678150109   11.23068889507448    4.06822205949541
Cl        2.86252897475059   12.46581189648120    4.75237926696020
Cl        0.55677673661731   12.90224872364032    2.43551744459432
P        -0.90141449019558   10.07820063907741    3.31553315412606
N         1.44709272236532   10.04253360687372    5.40599739626582
N         2.19450350706916   10.05824027429938    3.01176569906837
O         4.39061193179163   10.01971896578740   -0.60054823498276
O        -1.90362223205117   15.70383786725077    6.63517229394900
N        -0.04128777547260   12.05479058535405    5.58768637305587
C         0.18538517060053   11.44208568032960    6.70882749636839
H        -0.21032309611744   11.79237817276327    7.65676880066946
C         1.02424794407597   10.28059490191260    6.66106737873817
C         2.34403799117467    9.08039818504134    5.12279122445177
C         2.74001804146519    9.13807264892040    3.74655910321961
H         3.49243641996422    8.45519649489402    3.36491359327815
C         2.63192481481841   10.27018476235495    1.65161207868470
H         1.92418101769317   10.98391060025400    1.21106682436241
C         2.65662297632615    9.01202099667084    0.77679493696741
H         3.35829018292191    8.27689855595071    1.17405578390513
H         1.66171511350655    8.56527591965895    0.72309388152578
C         3.11830517088211    9.42220297643689   -0.62415472266410
H         3.21040167239531    8.54839037976044   -1.27300403315490
H         2.38055229822424   10.11482252498107   -1.05903283610853
C         4.40897473496002   11.19600284359105    0.18095377806860
H         3.71853457891408   11.93923598213596   -0.24492140392454
H         5.42923220255158   11.57802070410780    0.11686098775947
C         4.02415670512924   10.91925748003787    1.63241203083347
H         4.00193500287534   11.84923337216736    2.20296593300734
H         4.75305303885514   10.24521313371728    2.08769352052061
C         2.79831711883319    8.23284457061452    6.13289299560798
H         3.51333974887865    7.45798138227170    5.90776957613723
C         2.32927648959862    8.42522698207600    7.42487535438810
H         2.66989905853156    7.78053132723600    8.22010938248337
C         1.45132976104185    9.46255316266733    7.70676059254028
H         1.11335482584677    9.65056554840634    8.71318783043522
C        -0.77820233184811   13.29610519752661    5.55851103062592
H        -1.00740726584455   13.48971531078115    4.50280248185517
C         0.10399328973545   14.44831116957031    6.06314263980082
H         0.37075010736325   14.27796223863516    7.10852581093522
H         1.01942253620582   14.49539446445421    5.47080380659833
C        -0.68062727417912   15.75129774951336    5.92993329404849
H        -0.12309780249450   16.58468573432586    6.36065803664016
H        -0.86994515473325   15.95606155939011    4.86564619665432
C        -2.74040768398995   14.67361240921747    6.17238984740893
H        -2.98328300791803   14.82847310357556    5.10926967436910
H        -3.65794223162010   14.74684426896513    6.76045684577002
C        -2.09345025907470   13.29652929234603    6.34451670729601
H        -1.91268426602898   13.13000207354636    7.40747667850385
H        -2.76354864746746   12.52064913560646    5.96856947190744
C        -1.06479788532188    9.47485986578452    1.60244372550020
C        -0.69618893384547   10.33452758042584    0.57121521179807
H        -0.29756370924683   11.31162980786353    0.81422210510673
C        -0.85602423275974    9.93990532473549   -0.74534345386282
H        -0.56498141550988   10.60614337217089   -1.54366791046144
C        -1.39424488968815    8.69796919564392   -1.03950505046765
H        -1.51309249281441    8.38744507287228   -2.06697426972548
C        -1.79803715968423    7.85828214660741   -0.01359790959641
H        -2.24010883434252    6.89926500592254   -0.24171222552151
C        -1.64524405217924    8.24499310166755    1.30549965759842
H        -1.97777250217976    7.59275410162774    2.10085714996569
C        -0.88481523812473    8.58687882746622    4.35209576563244
C        -0.11984758279492    7.48595273637059    3.97111415448899
H         0.32805664697330    7.46243385640479    2.98615925739303
C         0.06836874410343    6.43111392350153    4.84501204413336
H         0.65529684533238    5.57790727654235    4.53805562490155
C        -0.48336861690972    6.47238307414725    6.11491353356389
H        -0.33319931709922    5.64908549794216    6.79681703680548
C        -1.21570499228009    7.57869276796416    6.51385494348184
H        -1.63090091802843    7.62132156450309    7.51010038270513
C        -1.40615210093137    8.63623794398643    5.64401306196504
H        -1.95621878752621    9.51187719641853    5.96446444948082
C        -2.57600713376297   10.78322318113422    3.46267557821109
C        -2.74718083857420   12.08115489010047    2.98537313187267
H        -1.89187740534991   12.61313381488781    2.58620626675013
C        -3.99886449460311   12.66832651130374    3.01696877167510
H        -4.12917431657203   13.67557329028043    2.65030284749898
C        -5.08490382387077   11.96379691780362    3.51129497119284
H        -6.06114928490089   12.42436022206239    3.54313738772361
C        -4.92222258299397   10.65972418215890    3.94963204858979
H        -5.77266961890992   10.10117565656284    4.31297178715947
C        -3.67450858864416   10.06190530978298    3.91819829037541
H        -3.56042563537563    9.03775233303689    4.24405357095492

