60
CSD_code = UPOBUX | q = 0 | S = 0 | Stoichiometry = C20H34N2NiP2S | MND = 4
Ni        0.59438064530966    7.50581735777413    1.89411149558264
S        -1.38506889272723    6.59443892519183    1.82595005079030
P         2.73496332295346    7.95295274778794    1.30878710336985
P        -0.02351282611170    9.13611538270287    0.53163045235649
N         2.42435399558600    7.64343909451412    4.99347471997637
N        -3.28066093895486    3.58347647759976    1.24195063025573
C         2.76560435053739    9.37733658995221    0.10479923409077
H         3.14769434378625   10.23208643698474    0.66761514754555
H         3.48713557763899    9.15335508896883   -0.68591567641518
C         1.40388808456239    9.73180598546123   -0.49660106200179
H         1.29345949049457    9.24840611454243   -1.47058689667954
H         1.31896480628811   10.81109866668449   -0.65046592758189
C         4.33248797607528    8.22845544444732    2.23398585209384
H         4.42114912540575    7.35143994033635    2.88663321321521
C         4.24286642920109    9.45551034493905    3.13897174115753
H         5.13917282162238    9.51849504569234    3.75286692294299
H         3.38815931523040    9.37641426394500    3.80607169144088
H         4.17070037462580   10.37728431963520    2.56423906836265
C         5.56531956822865    8.31954844547200    1.33763048195383
H         6.45313069125963    8.40648694438740    1.96196145949403
H         5.52163732038553    9.19916966821393    0.69939009021286
H         5.68399732772381    7.43947093153522    0.71170236465496
C         3.12850251475288    6.49170636767360    0.21304453642035
H         3.91103069304874    6.77084266638669   -0.50281272776409
C         1.85151081454002    6.12912028420903   -0.54076808356890
H         1.98000399148072    5.20762982484679   -1.10625618621847
H         1.56179277621085    6.91807375762139   -1.23132762754465
H         1.03512415571334    5.97228749176953    0.18304836067482
C         3.58306144964570    5.30242435519880    1.05422146103702
H         3.68585920661894    4.41920734365008    0.42552907594362
H         2.84032252500467    5.08889917386634    1.82308509975738
H         4.53920791230819    5.48724625787061    1.53715243801916
C        -0.40183639581405   10.57930047679792    1.64822565493438
H        -0.28188367770304   11.52201367626922    1.09990598836699
C         0.60361086098345   10.51419930198248    2.79660879366476
H         0.38987988043556   11.27175340278974    3.54891224466764
H         1.62143703056547   10.66186690148229    2.44123556278108
H         0.54346375284418    9.52896629763160    3.28313573295944
C        -1.81992878983597   10.46088770382782    2.20029643299179
H        -1.96718630160167   11.17934055093964    3.00534682571687
H        -1.98003461712656    9.46103464154577    2.60549247299373
H        -2.57134300968186   10.65086567201343    1.43781566407721
C        -1.43155237088263    9.12772597156330   -0.68359285518754
H        -2.31974713402137    8.95097952014266   -0.06429816669953
C        -1.29900934265360    7.93875583727366   -1.63289358068583
H        -2.20330503631447    7.83576291559038   -2.22933128623629
H        -1.16013402126751    7.01772632056610   -1.06927111042103
H        -0.46126062531860    8.06443651954108   -2.31714878894152
C        -1.59850239903591   10.43385015228464   -1.45324229923650
H        -2.49849741665100   10.38227200367917   -2.06398076106690
H        -0.75453742324133   10.60703629149312   -2.11761580195000
H        -1.69442837478513   11.28597668087369   -0.78466792579940
C         1.77525452646041    7.06051875033737    4.23491743015675
C         0.95673088774097    6.34403164873584    3.35141277694743
C         0.59148950989442    5.07695081779354    3.68840226164713
H         1.07468608839969    4.60826624566837    4.54119131457620
C        -0.42119772965501    4.32111280454878    3.05133467558553
H        -0.51941728054074    3.26897526733599    3.27689915756135
C        -1.34799735915905    4.91597322979865    2.24622187431047
C        -2.41569218024311    4.18007865776140    1.70496920852483

