101
CSD_code = UPOCIM | q = -1 | S = 0 | Stoichiometry = C42H54AuO4(1-) | MND = 2
Au        4.80037936508721   10.34856857192923   15.24418647371203
O         8.07837881847593   10.83007796081875   11.13763131001343
H         7.15830634050725   11.11355021307167   11.16685451512646
O        11.98726700764023   15.32470423995478   20.28713325428726
C         6.34602278501145   10.38434971187351   14.05386681030746
C         7.33883436539469   10.48465124994557   13.37075527293102
C         8.49465161970615   10.64586557219913   12.49528478931696
C         9.43614552805624    9.41330775938033   12.58211536695273
H         8.86713815374778    8.53857522533787   12.89806779012807
H         9.83839039765623    9.21219808268738   11.58852593379221
C        10.54072594753273    9.76483732818131   13.59444198948011
H        10.63684549964570    8.99572699896754   14.36125769613751
H        11.51052838893005    9.87306534577521   13.10399904027928
C        10.07866712216284   11.09861442426715   14.18561324219411
H         9.27715362118555   10.86800743378007   14.89909963349757
C         9.40484004736917   11.80963028018563   13.00672594211927
C        10.36002387904635   12.21898964555048   11.88454970476051
H        11.06828603285537   12.97767077505505   12.20825759545324
H         9.77779502349580   12.62106580999150   11.05777130481704
H        10.91546792339752   11.36522181524402   11.50981013214917
C         8.66704169958117   13.03098016743821   13.54931623992776
H         7.85863419879141   12.69160850009595   14.20162453791867
H         8.21803076556984   13.60028983842794   12.73113507211748
C         9.61559931995295   13.94080594691062   14.33422291341322
H         9.02703725650180   14.75889227896392   14.75253607573648
H        10.34369903799048   14.37440146045992   13.64813980486134
C        10.34575028827414   13.19885838918528   15.46259224945088
H         9.58007299603454   12.80710170953826   16.14397099113439
C        11.09568426218712   11.97501153938538   14.90854529504568
H        11.87173481033630   12.29001636688087   14.20391890524730
C        11.75590901552167   11.21329365983244   16.05242185494972
H        10.98889985438567   10.86452239088960   16.74733846517428
H        12.28385999930369   10.33940171871319   15.66707785313089
C        12.73860377442234   12.11849885274379   16.78892888775876
H        13.20981512693724   11.58182267072215   17.61513555749301
H        13.52921263364761   12.41730769879569   16.09261237129648
C        12.06513900179873   13.35197012709009   17.29858746704837
C        11.24567889214203   14.14697181201528   16.30897446686465
C        12.23285133157083   14.93578587216794   15.42890037663889
H        13.00892670440092   15.38838688510204   16.04354575619521
H        11.71733795220161   15.72664444305780   14.89034001863624
H        12.71534739690771   14.28244740656760   14.70753205085934
C        10.33765758928345   15.11941715473288   17.08436411523568
H         9.86280868916492   15.81539044953533   16.39159586481960
H         9.54739079940238   14.54334975610309   17.57185344378203
C        11.08112881272122   15.91390060109229   18.14902451975816
H        11.84443183652184   16.54973624586058   17.69122284547339
H        10.39698243639783   16.56774829706047   18.69373324681004
C        11.78141905344675   15.00155241146054   19.13051172035284
C        12.25200489405344   13.74633649139807   18.56759983537518
H        12.83687042406813   13.13383607391521   19.24241222237947
O         1.52508141020322   10.82422400446277   19.35340101436039
H         2.44486641453767   11.10861431846746   19.32376418366857
O        -2.38344079553315   15.32148998801353   10.20451548506571
C         3.25518282792044   10.38159836043406   16.43531062997482
C         2.26309635609417   10.47999779967870   17.11954734256933
C         1.10784269956311   10.64133581512588   17.99586630593816
C         0.16494131892586    9.40984517924971   17.90906683340573
H         0.73256744763788    8.53492598832555   17.59117002600061
H        -0.23587749444873    9.20798498613246   18.90306836967479
C        -0.94097883947169    9.76347871395179   16.89894259254199
H        -1.03991912273020    8.99471201656388   16.13213328158952
H        -1.90966168564256    9.87332547950611   17.39124029019255
C        -0.47754860990313   11.09652837174261   16.30733364311241
H         0.32288922799230   10.86462369710324   15.59304455848892
C         0.19866059250002   11.80646183556406   17.48553917545591
C        -0.75464830533501   12.21709143536044   18.60882890318963
H        -1.46288238547526   12.97603335221384   18.28566375728026
H        -0.17103706947212   12.61931306357563   19.43456236524817
H        -1.31006325717070   11.36387635173863   18.98487201186011
C         0.93764410874198   13.02680209991445   16.94223607041453
H         1.74511932208591   12.68630631382055   16.28936223358621
H         1.38803457236542   13.59557508353664   17.76002163742510
C        -0.01021985411964   13.93780058792757   16.15790208937397
H         0.57905025097488   14.75524220178231   15.73932201041523
H        -0.73749657421195   14.37217549843859   16.84437571932890
C        -0.74175199569153   13.19655384601913   15.02998526880329
H         0.02316522394324   12.80274117855689   14.34894692360497
C        -1.49380050476916   11.97460976265132   15.58532270919426
H        -2.26830609069984   12.29166795547071   16.29074296750746
C        -2.15718993939241   11.21377160803127   14.44271064141044
H        -1.39190416164027   10.86281345101858   13.74700267385139
H        -2.68671586923536   10.34136281463594   14.82924824673844
C        -3.13867644903549   12.12092981822923   13.70699091516895
H        -3.61270427308337   11.58482119578520   12.88202641147562
H        -3.92729834820491   12.42252867501097   14.40434787677502
C        -2.46254353077824   13.35202465986546   13.19516224557744
C        -1.63964266694312   14.14587026166686   14.18283196114380
C        -2.62359204169493   14.93904646430988   15.06258082121904
H        -3.39887169364685   15.39308758052833   14.44799385403788
H        -2.10514511046098   15.72911563341563   15.59947191708825
H        -3.10735980947445   14.28821096777290   15.78536618328670
C        -0.72928973654113   15.11419667013831   13.40501785233642
H        -0.25105356709388   15.80936265803990   14.09626115845222
H         0.05831231957882   14.53473541898351   12.91723940090798
C        -1.47135296560199   15.90987827668056   12.34028804363970
H        -2.23161699334829   16.54924243040509   12.79824013223361
H        -0.78556837283052   16.56038965213974   11.79364478527063
C        -2.17640820100706   14.99877935847277   11.36107198447259
C        -2.64998929419433   13.74560020627890   11.92600578355382
H        -3.23760720513728   13.13413125288335   11.25264588998139

