91
CSD_code = UPOGUC | q = 0 | S = 0 | Stoichiometry = C36H50MoN4 | MND = 9
Mo        4.79888447493291    4.94636600605641   12.48842217603339
N         4.44426999884605    2.94848031271869   13.36725925920794
N         5.31665866943734    4.52272953103071   14.55837285214893
C         4.95510591719154    3.25990944531511   14.54090140385154
C         5.12578802759784    2.32081040050154   15.71608574293085
H         6.12744769176259    2.41402961819529   16.13002809554681
H         4.97145887990185    1.28689379588739   15.42508909535878
H         4.41028183810150    2.56942772137473   16.50062621687024
C         4.08559690083309    1.59205084585837   13.02367182040590
H         4.88828542295872    0.90929107180952   13.35805544731726
C         3.96160509600620    1.44036049012521   11.51015215285237
H         3.27468195245251    2.18421829332723   11.11924006495855
H         3.58818760782717    0.44776045620153   11.26708791236795
H         4.92571718365668    1.57887632916443   11.03241227601708
C         2.77079704815562    1.14365988398437   13.68796379882156
H         2.73939337801171    1.43115426511743   14.73585559084618
H         2.67426871974520    0.06177353724011   13.62299290353074
H         1.92047851013615    1.59246602277229   13.18382733285599
C         6.00175065002624    5.11957735952040   15.67561393544828
H         5.64997401728097    4.66788139856915   16.61786745873038
C         5.70144587025264    6.61491816204034   15.72132581148806
H         5.93811001127862    7.04945195837192   14.75462661879533
H         6.29743885605803    7.10042509811225   16.49078058108006
H         4.65095103997248    6.78178581143416   15.94260695154067
C         7.51670591708660    4.89447788073003   15.55895869971592
H         7.75010446534652    3.83310768115234   15.52141868968300
H         8.03332778917244    5.33609458873227   16.40842087821292
H         7.87620254431972    5.35011007161105   14.64017048395143
C         3.91882178712848    6.43993308348181   11.06104717953307
C         3.08231866826876    5.28092484301522   10.96784246693520
C         2.43337847363000    5.11745443243370   12.22237398706850
C         2.85275132390833    6.15700258413242   13.09000418026845
C         3.76339811260102    6.98724101919364   12.38471684041729
C         4.50936472857060    7.16910241259987    9.88686562246361
H         4.81364013443635    6.46834623400775    9.11061665987402
H         5.38129182150969    7.75146131988838   10.18280712624671
H         3.77159462887418    7.85434046089244    9.45935686512312
C         2.73434638074824    4.60333303295018    9.67351365981705
H         2.17417225926278    5.29274435954596    9.03620444859727
H         2.11559074865817    3.72326511802512    9.83547144555345
H         3.63052611788023    4.29600324062061    9.13560976675705
C         1.27377026848431    4.21770447906206   12.52265799609546
H         1.31607274685874    3.84546885026937   13.54541335046949
H         1.23224574909163    3.36968582077794   11.84223042935803
H         0.34236589658739    4.78149006929942   12.41071855238580
C         2.21328573025521    6.43353875555114   14.41933008520100
H         2.65332232575622    7.30754978068528   14.89438632898827
H         2.31175296174432    5.58525673147339   15.09874443260639
H         1.14618327372401    6.62830721435254   14.28146512138648
C         4.21380205769822    8.36450845478727   12.77614047318400
H         3.54707749716790    9.10972860033204   12.33340157556570
H         5.22283718538106    8.56275002970908   12.41572893901824
H         4.20317087326010    8.50094122915366   13.85535157108501
C         5.98910566701734    3.91591205610512   11.36940620380683
N         6.64500525075231    3.32271097880798   10.55991256900986
C         7.72720446730249    2.55812819066618   10.25052997564534
C         7.92486167231685    2.19349748580200    8.91075873937372
C         9.01228078295789    1.40057728352593    8.58912158888994
H         9.17526018120482    1.11531446875120    7.55951830707907
C         9.88853701191774    0.96901879803953    9.57103151757001
H        10.73237674149888    0.34899282754487    9.30725000014857
C         9.68355879701031    1.33204817246193   10.89176331821433
H        10.37148093530564    0.99398643880698   11.65394923968052
C         8.61004308925518    2.12741314742482   11.25528294966532
C         6.96095217019696    2.67859163981001    7.87169647402959
H         7.20687116330107    2.27205855386070    6.89410627674456
H         6.98359139064142    3.76680388611500    7.81808455699308
H         5.94519304608712    2.38449499146088    8.13441664526568
C         8.38076290285739    2.54591885299919   12.67352465980666
H         9.07302052435231    2.03980396264127   13.34213977053082
H         7.35513121582535    2.32882615058533   12.98001000244204
H         8.51698294285223    3.62417202358831   12.77185701563707
C         6.50850734506650    5.87863663527368   12.39911715896928
N         7.47227738198441    6.56757930559828   12.28657650946335
C         8.59074517068684    7.20986489907437   11.87528337152026
C         9.13261159370299    8.21442263824556   12.69807735718315
C        10.26753085991357    8.88385675994355   12.27795791163242
H        10.68867960650166    9.65542848645018   12.90672017626990
C        10.86457850805791    8.58109050990714   11.06555255044661
H        11.75053703617466    9.11181420108087   10.75078647774859
C        10.31705517627196    7.60159022373097   10.25588806760439
H        10.77761574602179    7.37025462492021    9.30600384325779
C         9.18198783396876    6.90500470626619   10.63646119801386
C         8.47576183851618    8.54771147135166   14.00260180124131
H         8.97918177211937    9.38299035113709   14.48283804257673
H         8.50177197027495    7.69058180176915   14.67380036202257
H         7.43033790414446    8.81208675680445   13.84592709759479
C         8.60810116466646    5.84404072919368    9.75157734957307
H         8.85778061100692    6.03955835327624    8.71101468461661
H         7.52638600735806    5.78646264209699    9.86114056541539
H         9.01963229113020    4.87008480169741   10.01958230975911

