57
CSD_code = UPOHEN | q = 0 | S = 0 | Stoichiometry = C20H32MoN2O2 | MND = 9
Mo        2.57577465114229    4.11946835793972    7.51421584612599
C         4.14859975528126    5.14987913381783    7.90640863995614
O         5.11104305192980    5.72753886413892    8.20403080737818
N         2.57271366268728    5.19395329620283    5.63186537311584
C         2.56425580826394    4.11932376394164    4.87235948057169
C         2.51161968418490    4.11924090534751    3.36396909757146
H         3.51483187579177    4.11926816376332    2.94054473994993
H         1.99169845095896    5.00293104218076    3.00153267432175
C         2.84228752296316    6.51434221461125    5.12026358285805
H         2.23878718782452    6.70001905418820    4.21488316305963
C         4.32783150754561    6.64593088800967    4.75461064161019
H         4.93602825657861    6.46665179175735    5.63820186958335
H         4.53724388684689    7.64397298337957    4.37766059011955
H         4.60731127205380    5.92123148148885    3.99446395164805
C         2.47701832790008    7.56812981019907    6.15989672175777
H         1.40938096605790    7.55565477193938    6.35459629157801
H         2.74977711643161    8.55702190857870    5.79923544769502
H         3.01420171037230    7.36895843635130    7.08334324533974
C         1.64476566120548    4.11931539613163    9.56921750421004
C         1.13634975849826    5.27975065107305    8.89513436117278
C         0.34465034085433    4.82979736318746    7.80352103175454
C         2.26651921367734    4.11916517158620   10.93683798990938
H         1.48603295793393    4.11911395048615   11.70255580662862
H         2.88828816665540    5.00101078447053   11.08318668636717
C         1.19195600057997    6.66774138627101    9.46280350435013
H         0.93006229161279    7.41791022018327    8.72140049324579
H         2.18736869279452    6.89788630728929    9.83895125605427
H         0.48855556022714    6.75090067026425   10.29542845232270
C        -0.57746595659582    5.64690942362376    6.94579416825332
H        -0.37252348182227    5.50484358827010    5.88373148403179
H        -0.49821290468239    6.70672234425385    7.17635151788142
H        -1.61128021755283    5.34243342807928    7.12973910685342
C         4.14862894460093    3.08917265479056    7.90653520265077
O         5.11119383379969    2.51170440988354    8.20413398628272
N         2.57281293733527    3.04477524676192    5.63197681438872
H         1.99178459199574    3.23546315483614    3.00162137528605
C         2.84248514851423    1.72435265424961    5.12051215634198
H         2.23899813925156    1.53854372065880    4.21515186261672
C         4.32803535907825    1.59282133826230    4.75485932280525
H         4.93621197420014    1.77221909335818    5.63843757907159
H         4.53751702303962    0.59475558420532    4.37800540044844
H         4.60747813129916    2.31747081111925    3.99465137679958
C         2.47726320101755    0.67063886870839    6.16023188655213
H         1.40962034356770    0.68306674703934    6.35490705484274
H         2.75009452322972   -0.31827337761429    5.79967965745351
H         3.01441510319567    0.86994351081256    7.08366524403205
C         1.13632802365352    2.95903078730327    8.89489876452565
C         0.34471586457820    3.40924429570595    7.80331063931695
H         2.88823099504030    3.23725066071911   11.08301089526670
C         1.19171567579845    1.57096419481246    9.46240326668788
H         0.92963513562450    0.82092311569892    8.72094080128785
H         2.18709717425119    1.34058266721135    9.83848630798288
H         0.48833353987054    1.48785592098300   10.29504931379429
C        -0.57741301407190    2.59234717674659    6.94538169023836
H        -0.37244407605672    2.73465353346310    5.88335506277716
H        -0.49818362378077    1.53247767830135    7.17568236429013
H        -1.61122572723513    2.89679799896832    7.12937644699680

