113
CSD_code = UPOJEP | q = 0 | S = 0 | Stoichiometry = C52H56O4Zr | MND = 4
Zr       17.02844410805630   15.09342315653565    3.95617294136135
O        16.46028454167988   16.32315989661624    5.35068161754730
O        15.30205884564985   14.67426214165570    3.19931733946369
C        16.79256290430977   16.31501555774846    6.64026343466335
C        17.02250044784622   17.52508123299194    7.34471098310095
C        17.30813966182811   17.46934046391399    8.69880472091157
H        17.46446121427631   18.38135691299762    9.25042825614875
C        17.40273817019104   16.27014093640370    9.38702087025865
H        17.61795386736476   16.26863096407657   10.44453322020913
C        17.23044544315793   15.08554469934667    8.70653293505847
H        17.30454933605298   14.13962668409203    9.22300323288480
C        16.92717032530226   15.09132577407165    7.34907872349703
C        16.77374418262441   13.82203780905134    6.62633189660881
C        17.60588508671245   12.71998161503574    6.84725010357137
H        18.42245727466515   12.79532408938365    7.54963970064842
C        17.36646782198450   11.52771269418306    6.18665512568325
H        17.98145304104504   10.66703420289813    6.40644718331278
C        16.36291013818868   11.42601274099237    5.23438502098026
H        16.17692212172500   10.48637607342596    4.73774728435018
C        15.57160807948208   12.53363312430760    4.93286879414536
C        15.73975971076441   13.69778237296454    5.69482648329469
H        14.97541181716219   14.47586768475074    5.64556469501090
C        14.50802189405361   12.55759069844116    3.92110222572315
C        13.63128674418086   11.49571433175927    3.74926563932200
H        13.78133035463046   10.58737568096362    4.31454362134832
C        12.55379592888304   11.62529913994502    2.89866854696525
H        11.87647701155406   10.79926559902238    2.74377013063254
C        12.30222166103275   12.84931025296020    2.29727753806315
H        11.40634227091977   12.94342495497886    1.70599313875162
C        13.14870387081307   13.93739395765447    2.44059068567910
C        14.34335762102674   13.76027544395988    3.18145683497704
C        16.97134419841219   18.84663579246632    6.59125066820781
C        15.56435654264963   19.03958164560617    6.00881296801833
H        14.83360632768104   19.07340469721994    6.81509113439107
H        15.30726592472644   18.22033058513783    5.34188521213108
H        15.50915357134818   19.97469326342922    5.45572485262596
C        17.27835143782186   20.05809479888160    7.47890514896855
H        18.27019613866938   19.98594774034485    7.91879812974279
H        16.54214703616657   20.16457111589858    8.27215974340783
H        17.24672494665432   20.96016656288137    6.87086089524699
C        18.03225820914332   18.80176263510361    5.48073721715359
H        19.02266235845328   18.72281541191452    5.92584050622648
H        17.99154194851744   19.71338829814907    4.88949286828429
H        17.87814271425692   17.94305322740418    4.82100630528900
C        12.79294338168122   15.31500002502199    1.89223822617188
C        11.37239397901162   15.36985521842557    1.31938826435197
H        11.27483133584407   14.73312455110828    0.44318887618444
H        11.15001641331779   16.39048590274247    1.01419731369614
H        10.63618635933412   15.07193999259542    2.06252454134742
C        12.87618963725293   16.33529453062432    3.04048843504927
H        13.88861939513858   16.38543291111143    3.44569636329139
H        12.19063799697539   16.05783970579569    3.83992609948593
H        12.60224792892056   17.32481172207610    2.67964725283306
C        13.77575941745531   15.71052258130508    0.78665095045667
H        13.76104620068819   14.97929953032236   -0.01919801095877
H        14.78255447159197   15.76925043845749    1.18913636793051
H        13.51124242752411   16.68154885466121    0.37251864840115
O        17.59659856971425   16.32316443344812    2.56166626972404
O        18.75482843013025   14.67426411117498    4.71303200720275
C        17.26432492890492   16.31501457964898    1.27208317283505
C        17.03438432066337   17.52507821135351    0.56763349938585
C        16.74874806602545   17.46933469966433   -0.78646060198099
H        16.59243329378853   18.38135054387543   -1.33808718133155
C        16.65415536371016   16.27013361403705   -1.47467538195263
H        16.43894195815982   16.26862149725760   -2.53218825076709
C        16.82644668054361   15.08553840242326   -0.79418488865215
H        16.75234141861763   14.13961927212211   -1.31065336685022
C        17.12972083140389   15.09132203602706    0.56326979777427
C        17.28314465406606   13.82203412997994    1.28601830449083
C        16.45100198386048   12.71997850828260    1.06510240873257
H        15.63443074657225   12.79532023136157    0.36271162494844
C        16.69041580045456   11.52771100235172    1.72570158649744
H        16.07542929077745   10.66703290876460    1.50591147323137
C        17.69397275550482   11.42601157432931    2.67797255539121
H        17.87995907127911   10.48637587031135    3.17461276661437
C        18.48527760739630   12.53363083117439    2.97948493301650
C        18.31712961774952   13.69777752472141    2.21752295000148
H        19.08147933770122   14.47586071891973    2.26678278426207
C        19.54886313091673   12.55758989614953    3.99125234258196
C        20.42559760372136   11.49571336212922    4.16309090472931
H        20.27555408726020   10.58737407724063    3.59781384206997
C        21.50309008824025   11.62530026062827    5.01368568888134
H        22.18040855826005   10.79926673793362    5.16858566969390
C        21.75466616638099   12.84931309724375    5.61507256021091
H        22.65054451803104   12.94342803058207    6.20635829047545
C        20.90818389436753   13.93739661586514    5.47175833843927
C        19.71352895906607   13.76027668845349    4.73089429522449
C        17.08554673817641   18.84663373006644    1.32109046491633
C        18.49253445449552   19.03957537817963    1.90353010012735
H        19.22328264319063   19.07340058564127    1.09725043258310
H        18.74962786269550   18.22032385242227    2.57045697689082
H        18.54773734979586   19.97468707856903    2.45661781353026
C        16.77853573839791   20.05808680760413    0.43342852019016
H        15.78668979106776   19.98594020879958   -0.00646240128252
H        17.51473974706085   20.16456589268099   -0.35982633695864
H        16.81016235951398   20.96015679788939    1.04147434165051
C        16.02463629050872   18.80174977165866    2.43160593438575
H        15.03423176057128   18.72280129546512    1.98650351961267
H        16.06535191371273   19.71337784940385    3.02284583747486
H        16.17875530197216   17.94304157161493    3.09133916008011
C        21.26394516089827   15.31500374546280    6.02010755500435
C        22.68449416304889   15.36985832576960    6.59295834771273
H        22.78205755299166   14.73312898385253    7.46915880192644
H        22.90687160960250   16.39048957216380    6.89814734763558
H        23.42070134531893   15.07194245678788    5.84982199238368
C        21.18069784789785   16.33529467194044    4.87185423909573
H        20.16826788856809   16.38543333151605    4.46664676369558
H        21.86624874417348   16.05783630119798    4.07241723535008
H        21.45464167755183   17.32481231816187    5.23269246931554
C        20.28112986457114   15.71052996236824    7.12569399644654
H        20.29584274387856   14.97930916741412    7.93154505389913
H        19.27433503884494   15.76925674014571    6.72320806699631
H        20.54564688183144   16.68155750993705    7.53982347034783

