112
CSD_code = UPOLOC | q = 0 | S = 0 | Stoichiometry = C40H64N3P3RuSi | MND = 5
Ru        2.44664878393700    3.07909844407045    3.40965186399904
P         2.81354514481348    3.65009983526304    5.58627182838251
P         0.85474676707150    1.53916269929996    3.86125805497764
P         2.88261799024172    2.75966340624980    1.15141220014362
Si        3.72630151533751    1.18308715048557    3.93007796731926
N         2.99776758139711    4.95817762749809    2.79394457925892
N         3.61198995011012    5.94947144239097    2.86090268211208
N         4.18160927922648    6.93534728061930    2.85752926276213
C         5.54889068550848    0.74334380280627    3.45122006818178
H         5.62455795650874    0.42815221207117    2.41772937765427
H         5.90418842583395   -0.06658629082559    4.07556176775511
H         6.21461796726746    1.58377585956450    3.60065430223645
C         4.64178390393527    3.19922678484372    0.84651207904130
H         4.78726031441400    4.26425062606246    1.02387798466395
H         4.91058738454976    2.96472507062842   -0.18423312752711
H         5.27679054042648    2.63818025586534    1.52905877249702
C         2.87233699318999    1.13465461727528    0.28791270407231
H         1.89337610416336    0.66470985270552    0.34313970243934
H         3.58852920170703    0.48196743973666    0.78362001499884
H         3.15584560641447    1.26672174536789   -0.75630136487920
C         2.12017344799744    3.83587125448283   -0.13822872973208
H         2.06321378839325    4.85489794167281    0.24643751775499
H         1.11841564833145    3.49440693471783   -0.39415776063806
H         2.74161375223945    3.82353312227486   -1.03439628594556
C         3.76828507369800    1.09906785835682    5.85450820403587
C         3.34572610197910    2.21362007182118    6.58607477732789
C         3.42770748913736    2.20174141985881    7.97533848846485
H         3.13855469021874    3.06462421832970    8.55354108948576
C         3.89006750207306    1.07770070845539    8.63817019059108
H         3.94235018742407    1.07633319373416    9.71792257843938
C         4.28822793009153   -0.03682889251748    7.92029086190459
H         4.64521865983648   -0.91552176879103    8.43808755488142
C         4.23638006712345   -0.01323490684605    6.53774535374958
H         4.55671576803644   -0.87815861070491    5.97476957742800
C         2.69805925003491   -0.34866043082328    3.36326784521476
C         1.31964063935389   -0.12635551626548    3.30268885521112
C         0.44889603997796   -1.13750196084313    2.92181794081964
H        -0.62089238285238   -0.97337723982306    2.92399439600516
C         0.95731923921373   -2.36911401607596    2.54323090476539
H         0.28646270721508   -3.15638884051386    2.22891759112214
C         2.32369154924637   -2.59305039195035    2.57447136718290
H         2.71635366377913   -3.55534997187551    2.27751596141437
C         3.18502062675620   -1.59155814083982    2.99455664287127
H         4.24796129831060   -1.77990971119867    3.03134162812423
C         4.26797983615003    4.79102082885792    5.82743901927368
H         3.99239172380577    5.72446573284201    5.31926680146762
C         5.45694659238000    4.17876461598943    5.08506979054874
H         5.15560034608589    3.91387037041648    4.06433550874605
H         5.76193859943224    3.25739195783172    5.59040780002302
C         6.62106290665461    5.16313550808670    5.04945277553472
H         7.46823688575439    4.71730792345408    4.52341828268667
H         6.31874875450565    6.05840127700961    4.50091799266842
C         7.03045042486357    5.54629825811647    6.46832247554370
H         7.84311527239617    6.27496275645551    6.43897209011242
H         7.39333914972488    4.65828615416858    6.99250061179156
C         5.84017324852772    6.12763222566955    7.22454678925985
H         5.51430408925317    7.04653207715140    6.73094952337333
H         6.13408418776649    6.38115564609256    8.24610196439219
C         4.68262209569867    5.12981998351562    7.25614279862514
H         3.84843452036548    5.56341552570981    7.81134933067989
H         5.00726949995109    4.22325287847864    7.77102738303394
C         1.33630138083686    4.51132472564509    6.36869629407380
H         0.50287908429906    3.95314770822557    5.91067958448216
C         1.28230366553099    5.93058434386212    5.79732388819387
H         2.06774920615823    6.54531818779302    6.24294478938531
H         1.44972350851864    5.89139645514277    4.71373873572680
C        -0.06982596662942    6.57412768027172    6.08652985085141
H        -0.08660437229322    7.59126700983579    5.68956059869972
H        -0.86180547942209    6.00882091919417    5.58810942499645
C        -0.32924314517484    6.59436010281653    7.58962516867004
H        -1.30630850295624    7.03695450078096    7.79521904904296
H         0.42710717274159    7.21256512929296    8.07937339142932
C        -0.27191590361923    5.17892524565085    8.15550282187845
H        -1.06431732110075    4.57711450478713    7.70196831702585
H        -0.44717607825359    5.20084453720939    9.23378267443178
C         1.08325801284440    4.52670404734866    7.87333783504408
H         1.07143107319767    3.50759238255840    8.26530509420483
H         1.86044631654265    5.09009269766959    8.39285877213432
C         0.28114127424643    1.13710189622321    5.62963015256628
H         0.87254774343500    1.83463885667353    6.24154819149874
C         0.66465437846011   -0.27499493824772    6.07632122641490
H         0.06178407885507   -1.01152741375843    5.54063226771759
H         1.71371056814199   -0.47005914120798    5.85137388656176
C         0.43395283454991   -0.42997854867894    7.57746780290857
H         0.72022945884746   -1.43714259513094    7.88724430955638
H         1.07267330170306    0.27605729283129    8.11354662984543
C        -1.02756416771283   -0.17087626586115    7.92608404949785
H        -1.65410043981689   -0.92537553827300    7.44426539267881
H        -1.17764876498802   -0.25128920805372    9.00474761727848
C        -1.44277672363511    1.21442242147707    7.44505654756377
H        -0.86573715318558    1.97059137152969    7.98228098753074
H        -2.50035428474188    1.38447851281355    7.66174624054733
C        -1.19870675120984    1.36259917317134    5.94339946588571
H        -1.80511105321249    0.62209864994142    5.41618451405002
H        -1.52408150870257    2.35647920909732    5.63070150723374
C        -0.71620408325156    2.00444511570637    2.95739952402910
H        -1.59431430495847    1.50431541319980    3.37926811465270
C        -0.82431354027412    3.52251039967912    3.13392738460392
H        -0.92121375630139    3.77623011999211    4.19322217474556
H         0.11888493817816    3.97595855912781    2.76983407115418
C        -2.00459438931131    4.10131555165808    2.36394098041779
H        -2.93371201667497    3.68494593013819    2.76378571104671
H        -2.03955895705226    5.18504537663762    2.49792666199571
C        -1.89368105762307    3.76229785959899    0.88203087673471
H        -2.76179071635386    4.14786305883487    0.34314535487183
H        -1.00422775207855    4.24446364911042    0.47036951069466
C        -1.79021431791458    2.25208044743788    0.69432147315518
H        -1.68098643750774    2.01375681646174   -0.36656061227620
H        -2.71184849341501    1.78072050344993    1.04636310288213
C        -0.60462299356824    1.68572476138483    1.47109195459577
H        -0.54063555329652    0.60837798415513    1.30914840746741
H         0.32366502214921    2.13515463430558    1.10597002127978

