106
CSD_code = UPOLAO | q = 0 | S = 0 | Stoichiometry = C40H61P3RuSi | MND = 7
Ru        6.39793532342631    3.41967046518490    1.88535028050002
P         4.58841527213856    2.34600040988630    2.75792565200796
P         6.98139624480078    4.71903973128011    3.74394096452740
P         8.40747139191226    3.81102949231864    0.76888611527697
Si        7.47987739785470    1.60382690946423    2.91962871709584
C         9.01470890002292    0.51551723916942    2.46306169710292
H         9.36879337369029   -0.02772894652659    3.33027333567332
H         9.84479159824012    1.09708250269207    2.08985179602341
H         8.74360422205338   -0.20911222378527    1.70378509730578
C        10.03057701978460    3.72140902800390    1.66851277897541
H        10.55625155263756    4.67377755781608    1.60822812749753
H        10.65624394710987    2.95799065286140    1.21013899571327
H         9.86635100444103    3.46247962003874    2.71318189077760
C         8.75256248275117    5.31296474366050   -0.26638960904486
H         9.78198702447293    5.28144544287131   -0.62518050377073
H         8.59313163728150    6.21911242593708    0.31111033487711
H         8.08378446441872    5.33286067767229   -1.12597827793658
C         8.78390888199781    2.59077346615018   -0.56062491644585
H         9.78795650987645    2.76871517441374   -0.94742199255400
H         8.07140110024129    2.69788688017727   -1.37677804975421
H         8.71482319063273    1.58494114145827   -0.15293465791475
C         6.19179726112390    0.20600693860166    3.20679591702839
C         4.86601060044717    0.56724740097058    2.97861466420036
C         3.85626100744484   -0.38858065319409    2.96318352195001
H         2.83899864110440   -0.11426543786558    2.71930431578936
C         4.16266794003589   -1.71317359228424    3.21861875478161
H         3.38265768637942   -2.46177886272422    3.19862532589092
C         5.47090318311043   -2.07717924205480    3.49352910277807
H         5.70756409085011   -3.11098268159890    3.70460117400886
C         6.47543528578288   -1.12504996854780    3.46966441730110
H         7.49537337558414   -1.42827273296684    3.64975636778947
C         7.89615144010602    2.24770284815665    4.69583088697061
C         7.71769817448246    3.59908632811901    5.02389397118091
C         8.02685264138128    4.01884729460791    6.31601045381288
H         7.91714748230635    5.05030167564625    6.60039452664720
C         8.48781244371738    3.13155410928647    7.27135237618749
H         8.71752441021730    3.48824437781825    8.26572491522715
C         8.64451443816145    1.79476105209210    6.95337632106877
H         8.99055153135602    1.09275244939452    7.69871910619075
C         8.35132548341683    1.37096712859018    5.67101612345195
H         8.46368027839664    0.32737753400765    5.41875212587427
C         3.41536107199589    2.44242926717499    1.33877610803357
H         2.44417994245083    1.96590004457205    1.51653594332777
C         4.19082967118203    1.74990151336792    0.22561781776645
H         4.31287248447485    0.68700102428242    0.45831514108901
H         3.64502388845763    1.82006460838077   -0.72601857271376
C         5.54866042349002    2.41901258257152    0.08248336447936
H         6.17419768018704    1.88168953726117   -0.63349410173163
C         5.50914249189624    3.84210019299177   -0.06522053947016
H         6.17470713245687    4.35975592816258   -0.75835498997859
C         4.61310032522122    4.55976100924598    0.72572108580736
H         4.56941704686917    5.64113157878460    0.59020684900893
C         3.26585951895858    3.93237873322144    1.03983841370440
H         2.60987391805088    4.07226191810864    0.16775523673875
H         2.78115996767723    4.43605332988558    1.88424879356954
C         3.56445327924000    2.71662048803266    4.27887918831559
H         3.52569918801225    3.80979710846390    4.32911480111194
C         2.12710203087785    2.20282224670109    4.32734374415699
H         1.55285452678235    2.57365327446795    3.47537608240947
H         2.11698427610613    1.11265696737382    4.30798623072595
C         1.46370005436544    2.67363743507388    5.62211598913315
H         1.42758020483641    3.76634704005221    5.63733604414001
H         0.43456764787201    2.30849797980860    5.65958236870674
C         2.23542132522733    2.17433382184655    6.84011486363139
H         2.21830209865213    1.08210554082487    6.85463588183258
H         1.75548806514278    2.52905677272799    7.75510325017625
C         3.68371919222112    2.65217823035723    6.78830670494084
H         4.24077622992133    2.25970784924305    7.64174735550819
H         3.70694054541002    3.74358610699297    6.85083550881039
C         4.33959159178083    2.19462374071151    5.48968460056261
H         4.35686509817371    1.10173029815119    5.46295928664233
H         5.37954279934729    2.53413280159869    5.43895159128087
C         5.64760111330370    5.62246979165782    4.75661367947972
H         5.19249575194485    4.79308930468835    5.31421736473689
C         4.60603221311371    6.17778341681469    3.78119008051038
H         5.01738744607781    7.03735278126027    3.24977877063595
H         4.38137045199438    5.41225065036376    3.03729137319369
C         3.33133646282404    6.61505824241910    4.49646048587582
H         2.61739410214803    7.01036254524780    3.76921698293643
H         2.86305600718392    5.75813788418317    4.98824697557810
C         3.65060421057724    7.67194251397471    5.54688917166147
H         4.03589565116795    8.56940734811617    5.05643220534024
H         2.74481830473067    7.95152573921267    6.08986079291181
C         4.69676935553374    7.13356385230790    6.51524812854433
H         4.29000445834196    6.27046368531831    7.04878006190468
H         4.94322052000044    7.89587965989111    7.25872150645014
C         5.97166889295768    6.71949195080330    5.77626528451688
H         6.68963345143107    6.38456895507740    6.52109442861122
H         6.37997262104087    7.60106749690725    5.28222017632636
C         8.31253777019765    6.02493281836295    3.46229531604235
H         8.94771399984350    5.52977874919634    2.72081237587716
C         9.21128637641475    6.42907032465372    4.62810406974349
H         8.63931091168669    6.94942971859350    5.39542149969986
H         9.66323439799287    5.54132579465268    5.07414054205034
C        10.31641711289105    7.36311232965199    4.13501558703361
H        10.94915631835315    7.65479660294074    4.97626464453943
H        10.94567942216918    6.83668879915695    3.41300432009502
C         9.72024632438500    8.60305571731945    3.47714055354205
H        10.51771155197245    9.26532592887115    3.13280200061155
H         9.12386177694186    9.15215568990950    4.20970555230937
C         8.83820550872183    8.19506573399645    2.30185749573859
H         9.46223500762612    7.69919494313340    1.55454475279024
H         8.40026296467093    9.08090541257408    1.83483428237538
C         7.72697507122830    7.25837140358029    2.77275344429535
H         7.10906219958011    6.93482901130237    1.92839006859868
H         7.09156861846235    7.81596787661384    3.45936983965555

