68
CSD_code = UPOMUI | q = 1 | S = 0 | Stoichiometry = C30H28N7O2Ru(1+) | MND = 6
Ru        8.05932875378278   -0.15907758600369    4.50846992404091
C         7.25273943724588   -0.78849389080863    6.28773172658588
N         6.85756971015082   -2.07373830128674    6.32691470954374
H         7.01232379925882   -2.70399966046930    5.54386428352928
N         6.92360139752091   -0.28174462335071    7.49296197911974
C         6.32091329206330   -1.24524954218233    8.26267757305710
H         5.97203956130282   -1.05866771553091    9.25561133269755
C         6.28529616192924   -2.37997739135552    7.52561008211253
H         5.90510450331678   -3.35179839029404    7.76230325249365
C         7.13073829932779    1.08806004307774    7.92685310614032
H         7.82182273434657    1.53822194431372    7.20735120182192
C         7.77472980624616    1.13092432560882    9.31011655478786
H         7.08141828571015    0.80895443688602   10.08189237370408
H         8.08021823158005    2.14838667392216    9.53645461614358
H         8.65449225996761    0.49225726818846    9.33966534218280
C         5.80451861755667    1.84599874231570    7.89087294071306
H         5.37353714893249    1.80462720269867    6.89214967794552
H         5.96425126099710    2.88629112990641    8.15864060255734
H         5.09659244930307    1.41333819615731    8.59331186535163
C         8.83769129781593   -1.24127156228546    1.97548319210201
C         8.32440019502950   -2.46757808694379    2.70872529891275
O         7.91088586880010   -2.20066750809140    3.88186716684411
O         8.32799223640447   -3.56333603566669    2.17794611074768
N         8.80169123838268   -0.05373254719118    2.56798095782825
N         9.35009778823400   -1.17573368552724    0.73023736457257
C         9.66824169388605    0.13797481172341    0.49778623191827
C        10.22195110977647    0.77799480276716   -0.60401451021780
H        10.48953586275935    0.23201113714613   -1.49430539637595
C        10.41274351601816    2.13895973473429   -0.50690910377264
H        10.84023776654885    2.67537124293537   -1.33927123970251
C        10.06401146440686    2.84662629901198    0.64811679054171
H        10.23014382199331    3.91241675045480    0.67583200846917
C         9.51512711827841    2.22166320952235    1.74570614779841
H         9.24853708201202    2.78103216565932    2.62893568934237
C         9.31562853035573    0.84444699808496    1.67036142180064
C         9.53659084278417   -2.26217929922292   -0.19379152025299
H        10.59462162975777   -2.36216383974336   -0.44091617500800
H         8.97450501344330   -2.07092495028467   -1.10905081841079
H         9.17924573262397   -3.17940648394575    0.27265808389796
N         9.92835868480955   -0.21681472458885    5.20443870915999
C        10.73217272734275   -1.27002483251722    5.33197271926247
H        10.29863343449580   -2.22901130435966    5.06919067741575
C        12.03914910039255   -1.16816311927812    5.77003268711196
H        12.65148658743632   -2.05088643771783    5.85348173980330
C        12.54120916423260    0.08677959192241    6.09663822600614
H        13.55616973251587    0.20053605354626    6.44247843286062
C        11.71554799425649    1.18777224239159    5.96882680736994
H        12.07681080527575    2.17334582436072    6.21307075855599
C        10.40773178834736    1.01830598386804    5.51675110144975
C         9.45155480157783    2.10350199134608    5.32018742167193
N         8.25767125386458    1.65120172053314    4.86927935814497
C         9.65059773521991    3.46537743160120    5.52135466522578
H        10.59594566068526    3.83628972267277    5.88051000557041
C         8.61252507049969    4.34618188241046    5.24449627360410
H         8.74854823010629    5.40377716746826    5.40058231254104
C         7.40711467102219    3.86801389821150    4.74653035328307
H         6.61067069021410    4.55177130437645    4.50488896487809
C         7.25152204969490    2.49913387312487    4.55535822021972
C         6.10052001413307    1.79764000777693    3.99546254266928
N         6.26537780068664    0.45161028215963    3.87710471628967
C         4.92103753621874    2.41570644002573    3.58220562000191
H         4.80769514146681    3.48239050282328    3.68685007407177
C         3.90539723024972    1.65297654782894    3.03713120841706
H         2.98760972141421    2.11552229149040    2.71100242316300
C         4.09102442864981    0.28032085747815    2.91505424814071
H         3.32533088509641   -0.34870181624819    2.49183761629165
C         5.28148081360555   -0.27243277852280    3.34833216394260
H         5.46699072665007   -1.33853661908562    3.27441910730919

