116
CSD_code = UPONAP | q = 0 | S = 0 | Stoichiometry = C61H52P2Ru | MND = 8
Ru       12.32569497122519   10.86474735969220   10.39572194382034
P        14.34164558485869   11.20431267537228    9.42694318743181
P        12.03428338212537    8.63352481406175   10.12630499919489
C        13.28803717736095   10.54038918532860   12.13280518258369
C        13.70420192021456   10.54644577772424   13.26636690930313
C        14.20686104984896   10.58584443878656   14.64258287558280
C        14.35516077527389   12.06116629407767   15.02319356119008
C        15.46192951072114   12.51199416179291   15.53029182351489
C        16.56915129190823   12.94474506340509   16.04588643027403
C        13.17062177448897   12.94391133292035   14.71443415057677
H        12.25987141621313   12.43603816999916   15.04564796568351
H        13.10023515985247   13.05330585853401   13.62764159916740
C        13.26573178847306   14.31770413102893   15.36348684905404
H        12.39224088304955   14.91646463992664   15.11290782624991
H        14.15465346015910   14.84208318105511   15.01993706986363
H        13.32446839756287   14.22818340707027   16.44640686926560
C        13.21564767674196    9.85941705135141   15.53953698111335
C        12.80727146061188   10.36911489139556   16.76465266792129
H        13.18320249984425   11.32401813633275   17.10465280617871
C        11.92826167931030    9.65649101043593   17.56239160777619
H        11.61452460869855   10.06664714723936   18.51217703796266
C        11.45785308786157    8.42172413204530   17.15152818656856
H        10.77417985657482    7.86585376122092   17.77720370864140
C        11.87449105378768    7.90029518753443   15.93783905928580
H        11.52083317413134    6.93266756327131   15.61125171180192
C        12.74540210506357    8.61464234740814   15.13707319790020
H        13.06485881399135    8.20744610291561   14.18818605553077
C        15.55034325256313    9.88181701881190   14.77265680635564
C        16.02875476504632    9.54007915986744   16.03257147012658
H        15.44160325599373    9.77015222866821   16.90970248199425
C        17.24763242274187    8.90446125796540   16.17326656153544
H        17.60688272937837    8.64496462563388   17.15901097305106
C        18.00541820664086    8.59526013126207   15.05593801033095
H        18.95483511571921    8.09084348578049   15.16599000370445
C        17.53792437345943    8.93764232269317   13.80028094728989
H        18.11739615108561    8.70241223132883   12.91888358033945
C        16.32150423020159    9.58282136025668   13.65988897558959
H        15.96889356225692    9.85091289927836   12.67444877582327
C        10.12099065013252   11.28547659087883   10.54308703081015
H         9.29437748433993   10.62938469355506   10.78974433571394
C        10.78631218879304   12.14249718035059   11.44724812415424
H        10.58884966961669   12.21999800307631   12.50866151495415
C        11.66168039469681   12.97345908272130   10.70425984915498
H        12.19444537180418   13.83675204987146   11.08365640198995
C        11.48762990966741   12.65523790337132    9.32493342375120
H        11.91692603356988   13.21192269797134    8.50006369827795
C        10.54731091418051   11.61566081280867    9.22153157702559
H        10.09251336713956   11.24908785248070    8.31005726673662
C        14.89130779438649   12.88805445497424    9.87585287681508
C        15.13124198349883   13.12746769249305   11.22947297717702
H        15.02146038093321   12.31230757566706   11.93404078633144
C        15.46968132137479   14.39324265962462   11.66704490941878
H        15.65757006871370   14.56343999553902   12.71735639387473
C        15.55549760772626   15.43974600957385   10.76114738553827
H        15.81334878861782   16.43227068017909   11.10114396029278
C        15.29633013580976   15.21302200902549    9.42029646947459
H        15.34863945858775   16.02972425610547    8.71423404423550
C        14.96383766761179   13.94415295283469    8.97528817336582
H        14.75760224279308   13.78152748189239    7.92612028429050
C        14.44048599467563   11.24979035085920    7.59803775949202
C        15.64915044915254   11.51611748886264    6.95786215128560
H        16.53602678998942   11.70266443099169    7.54859903111484
C        15.70975020052929   11.54364068864607    5.57807830823611
H        16.64791377697559   11.75436470178060    5.08514762509919
C        14.57096967267965   11.30032265134770    4.82399435402141
H        14.62429446176273   11.32114818972697    3.74520991696356
C        13.36956621600321   11.02852987826020    5.45471775081404
H        12.48048857630429   10.83296846857095    4.87227938742819
C        13.30701976532361   11.00433545069350    6.83712830001809
H        12.37467219596113   10.78166151367748    7.33853128765067
C        15.86425917216594   10.21968922120932    9.68924049771122
C        17.00238126432378   10.65807088499258   10.35397646523757
H        17.03089576357876   11.64014537904878   10.80238978760776
C        18.11683561187515    9.83879206441817   10.42932343064549
H        19.00252593076528   10.19361260451982   10.93682801812518
C        18.10419945829399    8.58022555965553    9.85308127475390
H        18.97709287418929    7.94677571643008    9.91574585519676
C        16.97216085893336    8.13775533279907    9.18752384509592
H        16.95657068234418    7.15868113451409    8.73164507195456
C        15.86374309353403    8.95587837082642    9.10500375723674
H        14.97672542558614    8.62924058910981    8.57824410464602
C        11.26528871632812    8.24693877424307    8.51700660784447
C        12.06847695431376    8.08574502941486    7.39027426282658
H        13.14467541348213    8.08352232700459    7.50124444590282
C        11.50163547011027    7.93317475266659    6.13908875760963
H        12.13644315862939    7.80067438129484    5.27468764979704
C        10.12372474233402    7.95918094607773    5.99353257456277
H         9.67916877865707    7.84317043962469    5.01586388444864
C         9.31698788309328    8.14267697362059    7.10510962574232
H         8.24230188422704    8.17326700327632    6.99362235435526
C         9.88253756289676    8.29151381658949    8.35822866871278
H         9.24984167090269    8.43793886977121    9.22373808370370
C        13.31401053231992    7.33717494161709   10.30311946088841
C        13.32382340075605    6.14295469514930    9.59067646887955
H        12.59248814127250    5.95801631269194    8.81622479079218
C        14.28576720609723    5.18658335868273    9.86514324281406
H        14.29499146126591    4.26287103204303    9.30372350537811
C        15.22896357568996    5.40332536120091   10.85633087605687
H        15.97270416156558    4.64835101323692   11.06632189515339
C        15.21525340053303    6.58664713713332   11.57655247330762
H        15.94498709346034    6.76425753598222   12.35302940421108
C        14.26374885782885    7.54898920742459   11.29768965075982
H        14.24086836067889    8.48743902036984   11.83707056913931
C        10.84335012523090    7.87898547707929   11.29970103904791
C        10.25107735713485    6.64554482695541   11.04187300751226
H        10.47229551993624    6.12256223697388   10.12182177931830
C         9.37418548104376    6.09438556893882   11.95672578480504
H         8.91134211579697    5.14008408502134   11.74935972115132
C         9.08748808570723    6.76160098406999   13.13797098003284
H         8.39772145077985    6.32847585611264   13.84783368625121
C         9.69050422515226    7.97793421990582   13.40833029058673
H         9.48059062067761    8.49542573770140   14.33305340613589
C        10.57011818292311    8.53183872749365   12.49476184888317
H        11.06315964170057    9.47336411003519   12.70520042779352
H        16.73424704774454   12.96527873271503   17.11251439525693
H        17.38304742579214   13.30001865847949   15.43195406706513

