111
CSD_code = UPONIX | q = 1 | S = 0 | Stoichiometry = C59H49P2Ru(1+) | MND = 8
Ru       16.13229904486419   13.09764688606742   22.01458532165772
P        15.51406629884227   10.85657094000923   21.91722269722262
P        14.26334800264316   14.04494128066156   20.97215684604237
C        17.16721415416222   12.97409813886293   20.43994187977849
C        18.02047379872968   13.16694116257103   19.47851853865491
C        19.49601293357132   12.70701933177300   19.40457707355594
C        19.99271201519013   13.29546892586628   18.05113376430925
H        20.85865563817850   13.94627802418923   18.19197761138022
H        20.29153585475745   12.49809485458877   17.36601473946188
C        18.82891942559064   14.04260018632566   17.49907168377310
H        18.88378133344014   14.56832501278113   16.56184607157934
C        17.75664894923312   13.96030177619760   18.27909669674496
H        16.79495641551978   14.40998153644734   18.10601300341327
C        20.19424759053902   13.37491012590415   20.57845851325258
C        20.19861300077428   14.76597584280551   20.65144571882356
H        19.71802891902534   15.34314426547860   19.87386013538270
C        20.80913200502299   15.41885561842463   21.70589639431788
H        20.81064250122336   16.49873136912776   21.74066581675235
C        21.42347788999272   14.69276480321440   22.71309483942271
H        21.90536204417672   15.20102042405707   23.53427615303991
C        21.41432919131712   13.31059501719501   22.65594175645861
H        21.88932769569352   12.73419718786775   23.43658104800153
C        20.80041737312369   12.65574884133494   21.59984412252804
H        20.80547705455047   11.57657563752418   21.57120698355339
C        19.69137197655209   11.20760315518188   19.39601350216515
C        20.97793405568713   10.70788768266940   19.19614095948157
H        21.80427835970218   11.39229858849305   19.06815410814902
C        21.20822060355689    9.34582134634969   19.17523543635453
H        22.21131661624601    8.97613335521347   19.02464638444904
C        20.15849501369194    8.45659074332785   19.34563463971061
H        20.34046111422562    7.39299039627997   19.32787137297424
C        18.87898613781732    8.94346305353656   19.53435400081029
H        18.04700231383722    8.26681270197341   19.66522633371818
C        18.65100878547385   10.30933685585165   19.55774609004320
H        17.64795185357184   10.67708997502686   19.70750431033474
C        16.03410145823273   14.86463430150310   23.41012137648802
H        15.44769620176264   15.77130185914255   23.32383375825068
C        17.38618067749573   14.72159398494939   23.01049730308571
H        18.01167153862971   15.49072247139499   22.58047767495637
C        17.84066013912583   13.46262836305299   23.46836657596920
H        18.86579832106192   13.12047164704029   23.44892831659267
C        16.76877083930267   12.83904722861152   24.16348535556434
H        16.86289267479640   11.93419919465394   24.75035375314254
C        15.64935448766349   13.69951885766910   24.12536597128488
H        14.74328265594734   13.58917868541640   24.70432775249393
C        16.75062431580347    9.78145993426650   22.72162967844478
C        18.09342832852232   10.12602454999035   22.59890845721905
H        18.35838197381610   11.04021422084163   22.08148795072200
C        19.07554538498364    9.31162629449085   23.13021391652422
H        20.11541106827828    9.58264854219295   23.02640310727377
C        18.72576090904517    8.14817319653363   23.79567444319490
H        19.49090365964856    7.51198187112659   24.21311526871144
C        17.39039855299140    7.80628446716262   23.93239255553891
H        17.11412823701723    6.90505815962003   24.45877955448674
C        16.40291424930356    8.61470551490582   23.39778410221415
H        15.36445710849318    8.34226640229835   23.52498464685899
C        15.24357767080738    9.97494959088328   20.34306327307734
C        15.29153030381479   10.67118934587498   19.14226078880942
H        15.49979635169373   11.73345675505058   19.16703880916364
C        15.09722274736524   10.00802699118262   17.94400334555361
H        15.14287524341210   10.55477373475457   17.01485771904928
C        14.85394912353077    8.64514423810287   17.93900547132917
H        14.70532690875770    8.12508108771709   17.00520296458992
C        14.80836488120508    7.94515640150966   19.13489327710901
H        14.62376409651315    6.88145053388967   19.13182028127613
C        15.00446111800048    8.60279317838024   20.33479337316293
H        14.97286458895408    8.05105360637007   21.26267830788423
C        13.98075241732959   10.44508124312602   22.81284577380240
C        13.95894796030206   10.49107908147058   24.20650022707408
H        14.86660760747498   10.71180832762210   24.75094329040774
C        12.78720779619893   10.23953505247525   24.89532667521064
H        12.78190614329244   10.26853355811810   25.97475572954049
C        11.62272855838362    9.94850232684226   24.20130009938281
H        10.70836839575898    9.75207695829360   24.73989386199915
C        11.63607492484037    9.90623068167172   22.81665621373227
H        10.73146349094842    9.67713914801710   22.27392640846373
C        12.80678826070269   10.15485022500110   22.12143660641502
H        12.81360425838870   10.12644085860834   21.04111557388618
C        13.06008091996928   14.61469331786627   22.22463055545735
C        12.52875358083179   13.66369198384160   23.09406916156649
H        12.84402312395156   12.63322345118385   23.01034968315119
C        11.62061718891381   14.03115782938638   24.06898919258823
H        11.21242360981550   13.28018314701523   24.72932727899468
C        11.24571741865636   15.35867356214574   24.19994492068763
H        10.53953343898533   15.64964212721458   24.96210744205119
C        11.79033227393530   16.31291300662702   23.35718682645275
H        11.51261815285342   17.35052597906639   23.46485608904548
C        12.69477729144072   15.94862062257105   22.37416142201591
H        13.11530710008628   16.70831747961545   21.73132916085903
C        13.19522721507998   13.20015169779085   19.75158931751837
C        11.99097971679080   12.59040999330792   20.08190798259819
H        11.62644092988624   12.61149410181853   21.09753331146227
C        11.23512189861902   11.97172243798905   19.09995919332860
H        10.29882733791552   11.50422558590752   19.36543889664122
C        11.66620499749794   11.96150153873399   17.78510655156164
H        11.07044721680914   11.48227106295948   17.02373652746652
C        12.85856749831386   12.58200772745888   17.44683621900837
H        13.18987198968228   12.59451087009040   16.41959893146002
C        13.62018937875053   13.19330693660832   18.42282468684399
H        14.54752380779770   13.68324741955716   18.15771697342951
C        14.63014693654549   15.57133846556572   20.04415622562608
C        13.60679048926758   16.20830804919640   19.33995871076205
H        12.61233995920918   15.78285393660593   19.33588737869226
C        13.86605476353146   17.37651921623813   18.64941205189417
H        13.07089859824176   17.86576709989445   18.10773591253712
C        15.14260011232223   17.91974965572918   18.65086289943126
H        15.34055855518721   18.83171290478149   18.10908493847236
C        16.16155666261433   17.28891942685106   19.34353531176439
H        17.15747244904253   17.70576797468688   19.34058649786919
C        15.90663165829360   16.11879811314071   20.03902293397494
H        16.70491213903031   15.61146556354409   20.56525267756632

