61
CSD_code = UPOVAY | q = 1 | S = 0 | Stoichiometry = C24H29ClN4O2Rh(1+) | MND = 8
Rh        6.16602459142478    0.78753741673167   12.07276982344444
Cl        4.07579820093685    0.95304031916707   11.07157559407871
O         8.70805204472160    4.94393611351396    9.46321653185868
H         8.21402143187292    4.51938998412229   10.19618568241922
O         9.29629656570026    4.45355835627425    4.76909128908630
N         5.23189989238328    1.62580086534751   13.67212873582264
N         6.34449902058333    2.78559866423971   11.69161179042950
N         5.81464170331039    4.94806693424400   12.37566668141956
H         6.16874321147860    5.30963881161472   11.50485156356138
H         5.26804282255121    5.55742618527539   12.95517256914039
N         6.95535269697369    3.32326077994353   10.61329136624388
C         4.57174904687193    0.92812045737532   14.59297917882266
H         4.64754746921060   -0.14935329319714   14.53545982683033
C         3.80604316322455    1.52732165917166   15.57545948223552
H         3.28986780860835    0.92061355451748   16.30101125708710
C         3.71175179545013    2.91337446534211   15.60180211728298
H         3.12246095500073    3.41134386129941   16.35516488845387
C         4.37201500761862    3.64201696746184   14.63181814174411
H         4.29604768287579    4.71720152951017   14.61652680168248
C         5.12475789689574    2.97112380280509   13.66821631526802
C         5.78976888421047    3.61109429062776   12.54453926025888
C         6.82272870851651    2.76324218323762    9.45568580224015
H         6.16069566584932    1.89970732830725    9.34474960337225
C         7.48080741348577    3.23807293712007    8.28908336360733
C         7.22070104326974    2.62448005622952    7.04638512269548
H         6.51077539269508    1.81170725697221    7.01063196085595
C         7.83371737815124    3.04556799965642    5.90295450655372
H         7.63503637943748    2.58235340346096    4.95093790103088
C         8.75126515166485    4.11718202319395    5.94130681188691
C         9.02550534937164    4.73684455554002    7.15565905255169
H         9.71825375255633    5.55794634328655    7.23595986943747
C         8.40295077245450    4.31314685717612    8.32232671564352
C        10.21872088484149    5.52239013350823    4.70766740243918
H        10.50705509744483    5.60042402252308    3.66136058698834
H        11.10429923104148    5.31759625356118    5.31508909206672
H         9.76027676085357    6.46092700170499    5.02990633601935
C         6.34460325517218   -1.38821112368105   11.85634082226277
C         7.08880436056123   -1.01998545742683   13.00866022288051
C         8.11369060981904   -0.09296872486474   12.60368944407659
C         8.06331512182236    0.02257312072132   11.17269242657174
C         6.94800692357577   -0.73246154218242   10.71001673998252
C         5.27534013109009   -2.42458290858934   11.75148724769950
H         4.87357356457346   -2.68970600046140   12.72572054040926
H         5.69029868548139   -3.32336006337062   11.29338179844190
H         4.45861669882949   -2.07374436731223   11.12328324303826
C         6.97439491963511   -1.60362312825987   14.37809212414782
H         7.08553231244582   -0.84698967346595   15.15294727063936
H         7.77724554600260   -2.33097948742255   14.50924596762313
H         6.03000878677556   -2.12318628993281   14.51887724123691
C         9.22543561194136    0.39932046622267   13.47132528456236
H         9.62643555378146    1.34109853135133   13.10450635137605
H        10.03345348216794   -0.33427161389527   13.46959518884839
H         8.89711936714271    0.53565431721722   14.49890437615065
C         9.11194253709779    0.68454084939805   10.34105068194513
H         8.77320200869295    0.86044893698105    9.32371338531240
H         9.98308351993834    0.02853597193553   10.30127533775623
H         9.42965005322899    1.63176559464182   10.77224946369430
C         6.58306199852280   -1.04450185406565    9.29522394400750
H         5.51686952992215   -0.89829290417527    9.12799951101209
H         6.81049247313600   -2.09188104221397    9.09354898850651
H         7.14045207508962   -0.43049168800665    8.59282937326188

