59
CSD_code = UPOVOM | q = 1 | S = 0 | Stoichiometry = C24H29ClN4Rh(1+) | MND = 8
Rh        0.27639342734091    0.75386405910504   10.01273258752630
Cl        2.07858572382569    2.17680257930067    9.62172885285323
N         0.77341298081202    0.15058828302638    8.13657779905956
N         1.61695315357001   -0.78743958198898   10.38374116335416
N         3.16453770927714   -2.23854622531205    9.43160059660002
H         3.25175193713240   -2.69040790801841   10.32945666777034
H         3.44206527521012   -2.76558867777873    8.62321909898740
N         1.82748409997899   -1.39272758814547   11.56173078197302
C         0.34683268275197    0.75642152464595    7.03124113926061
H        -0.46789078923917    1.45905273019595    7.14396499930777
C         0.91238361101509    0.52812671332228    5.79120973521643
H         0.53100664108079    1.03903272056508    4.92266623724017
C         1.98431767167194   -0.35093752734662    5.69365257900813
H         2.46089343656027   -0.53438097675092    4.74382827671589
C         2.43915328051359   -0.97419394885145    6.83891042229126
H         3.28884129807353   -1.63630159031354    6.79930644922261
C         1.80954966432605   -0.70903930136151    8.05514269851322
C         2.20668102664550   -1.28481737317836    9.32802129860592
C         2.34606232125675   -0.86667448475307   12.60882378336698
C         2.40912465056953   -1.71847612355687   13.79630101768744
C         3.27553960047886   -1.43045252915252   14.85258605914789
H         3.93151595847740   -0.57571923251019   14.80326414748359
C         3.32374584153463   -2.25512986024754   15.96093687196382
H         4.00185130125286   -2.02487499859734   16.76824376326840
C         2.50843598703405   -3.37246453217204   16.03887576648532
H         2.54529436859910   -4.00935450498707   16.90894809189099
C         1.64808675931233   -3.67296371151009   14.99317909157016
H         1.01463444584164   -4.54509249257387   15.04864986584325
C         1.60184723473980   -2.85784946705304   13.88115274459954
H         0.93737193969824   -3.08700739969419   13.06143608995602
C         2.89936253191327    0.51794858681136   12.64953293330759
H         3.96367638428353    0.49086430230332   12.41344614162289
H         2.77804007008866    0.96543534470014   13.63159295048349
H         2.41659635192199    1.14161677864349   11.89513416701571
C        -1.93343851745546    1.01066580426775    9.81568915471641
C        -1.29109080961634    2.25438764617061   10.11237100606672
C        -0.68455439643423    2.13682478912733   11.42257881158975
C        -0.89951355085214    0.81210472686834   11.88935419911897
C        -1.63929240350701    0.09679345251424   10.87558223746805
C        -2.85296017627848    0.72193560091459    8.67575223559986
H        -2.82419040930857    1.50684957480928    7.92481234746422
H        -3.87254440946799    0.66220028543648    9.05952370569988
H        -2.62208659361288   -0.23019112526735    8.20043428964307
C        -1.42910320270743    3.54962771453207    9.38072426633062
H        -0.46723306748776    4.05391573785318    9.30602689881757
H        -2.10715114306846    4.20271203992609    9.93166120715509
H        -1.82873442411548    3.41052893912466    8.37960359633539
C        -0.09890124520399    3.28283731382291   12.17573239002216
H         0.36481363680472    2.95697850552260   13.10223834263216
H        -0.89196979743639    3.99248812605331   12.41391121647496
H         0.64638106826978    3.80265516788418   11.57590790359717
C        -0.64007331094260    0.29763435879576   13.26638283377957
H        -0.37464045005355   -0.75650508344841   13.25991320574066
H        -1.55274242605380    0.40936551088407   13.85411305641490
H         0.15071252705995    0.85366452512078   13.76129964704608
C        -2.23161808670903   -1.26335662184126   11.04150457567979
H        -2.43556420242396   -1.72633158618677   10.07921891353311
H        -3.17440656527018   -1.17982799505061   11.58476385572419
H        -1.57233662168065   -1.91347099460067   11.61156523414596

