57
CSD_code = UPOVIG | q = 1 | S = 0 | Stoichiometry = C23H27ClIrN4O(1+) | MND = 8
Ir        7.47885416399434    9.24871858901177    4.57445439498379
C         5.40473848035322   11.39976739740721    4.78321145196585
H         6.17427037936052   11.98646858179641    4.30491969461550
C         4.22677378585001   11.99210121203376    5.19479863939084
H         4.06704118363727   13.04461707920655    5.02890860512256
C         3.26654604732331   11.21157803135751    5.82807392207325
H         2.33839128327560   11.64473902080538    6.16473444825489
C         3.53158169206234    9.87124230373402    6.03108586915929
H         2.81147495818169    9.24735807626159    6.53512163343172
C         4.74151317381124    9.33875622131076    5.58839813095097
C         5.16647842454532    7.96310380675387    5.79453932408848
C         8.03675662537552    6.21296912693057    5.91642306659886
H         8.68531557324928    7.05053445354630    6.17908943116583
C         8.57836421736767    4.89646942973775    6.04646012619339
C         9.87576729873911    4.74120567061205    6.56601745954225
H        10.42049273972301    5.62374940534764    6.86791187387791
C        10.43831475788829    3.49619114073296    6.70358341864050
H        11.43236721058582    3.39042571037720    7.10738833825062
C         9.71695173908929    2.36627759407876    6.32084680597324
H        10.15733537251889    1.38751094943792    6.42933281987784
C         8.44464948058675    2.48678568805735    5.80556336583385
H         7.87513697909449    1.62182278802596    5.50596886744085
C         7.85537077680224    3.74255688660890    5.66203011450534
C         8.16875080783424   10.36476829065441    2.71633109659966
C         9.19118190894811   10.38046311335156    3.69890251871738
C         9.59204668978075    9.00598302895027    3.94590519856935
C         8.81945544142863    8.16422590135245    3.09672897005370
C         7.88511305054064    8.99224121702831    2.38668939193680
C         7.58810021946478   11.54033889966609    2.00590393129121
H         6.52182185763372   11.41634507886627    1.82563885750806
H         8.07680761439505   11.63923739213751    1.03542367803167
H         7.75224204970918   12.46434129191541    2.55454248873701
C         9.90923226194968   11.56390344517411    4.25201965840861
H         9.37761882762245   12.48907817658902    4.04794565036299
H        10.90096192475113   11.63020957600117    3.80328024455928
H        10.03531458117641   11.46673357212742    5.32860186614415
C        10.79148864346362    8.63110425500777    4.75151646166443
H        10.73183295407592    9.05641642146358    5.75207661529491
H        11.68545718800851    9.03259872396867    4.27346461955093
H        10.90002728367308    7.55280222313877    4.83011071587884
C         9.02241122747463    6.70744686209976    2.84779945349319
H         9.57372255986357    6.23180996687204    3.65435165988913
H         9.59582227569229    6.58578932438219    1.92767197046386
H         8.07561260191062    6.18723442174424    2.71911535027326
C         7.00445261991787    8.53834594306558    1.27175931740834
H         6.64876249084577    7.52453879628215    1.43729659645691
H         7.56754406705436    8.54819528994897    0.33722902855723
H         6.14586073403513    9.19450458438778    1.15223594254706
Cl        7.95818408088550    9.78643430410371    6.82411617474009
N         5.66395000097073   10.10519233585214    4.95900487266200
N         6.38143483758567    7.69800143981733    5.36847196763536
N         4.39339860331410    7.04027287652922    6.39312683528534
H         4.79141336514390    6.13788310123024    6.59661812682314
H         3.51351003705561    7.28134298165422    6.80972691882134
N         6.82789245472982    6.43266442708735    5.53170742511458
O         6.61868254820814    3.81445391769419    5.15477605833704
H         6.35600584745935    4.75534965669014    5.09074853623168

