77
CSD_code = UPUDEP | q = 0 | S = 0 | Stoichiometry = C32H36Br2HgN4O2 | MND = 4
N        -2.83216759925929    1.50421863911413   -4.10097750052613
C        -2.86612085394199    2.23519473478208   -5.34254912290774
H        -2.70386948223857    3.29906815435912   -5.15516092044348
H        -3.86748004169793    2.13346951191464   -5.77434492017093
C        -1.81872184099426    1.73790869971167   -6.36007190690148
H        -0.82096310450768    1.79825484366057   -5.91963947674769
H        -2.02142859888306    0.68721267662493   -6.61357236588279
Hg        6.31850534866968    4.59529925529755    4.93650132642594
Br        6.51662493938044    2.29513849849010    5.76132692698576
Br        7.27523887937421    6.71459127561346    4.16981279568197
C         0.02128737810910    2.30792682349767   -1.10164884775901
C         3.06020641016683    5.02122750345739    8.25059760036246
H         2.52771373082211    4.29123586634471    8.84133631895650
C        -1.12363500274692    9.54619668133468   12.73931427840290
C        -0.28752547247628   10.40339530392890   12.00436251020060
H        -0.30408125931016   11.46757166625053   12.17133949421454
C         3.56984146494458    7.25710534077699    7.62938643376057
H         3.45577579932489    8.32625738892598    7.70290473227136
O        -1.77725830951281    2.53633403974685   -7.51393969102543
H        -2.62918803275831    2.49406428816564   -7.96254186244637
N         4.67340401843398    5.43652690150014    6.54349006142331
C        -0.86366516304808    1.22679003552382   -1.01178059593099
H        -0.82174272966419    0.58366252467713   -0.14368248202534
C         0.68886523198860    8.54237761301646   10.78800041064171
C        -0.98858311745673    2.83857159253290   -3.23926413788507
H        -0.99507398659534    3.48215534032190   -4.10327334189696
C        -0.07374419687809    3.10376923202948   -2.24942082807001
H         0.59250152331873    3.94265144952947   -2.37830395054312
N        -2.02910157299933   10.01265409442893   13.65771058762531
C         0.58155585009432    9.91204738442895   11.06068766027935
H         1.20866264069539   10.60610744930219   10.51878313434120
C        -1.01738583702225    8.17091849135037   12.46626546185693
H        -1.63227495300261    7.46270844366142   12.99611404064374
C         0.96750271300675    2.53235491011740   -0.04077581263066
H         0.94155058842580    1.78603470436324    0.74313913352023
C         2.99299413783381    2.83728957423007    2.17724915907224
H         2.44735852724680    1.90917655801559    2.22605411370160
C         4.45873364070412    6.74356436985000    6.71198095964403
H         5.03355121864045    7.40672468715615    6.07838243722032
C         3.55856861065904    4.91574194249590    1.17478112921885
H         3.45304714277011    5.66599551660714    0.40582560223393
C        -2.70675786617701    9.08212214755095   14.53205636402504
H        -3.37437326326934    8.43329505190829   13.95969125294564
H        -3.30993962283427    9.63471206020435   15.24821142019234
H        -2.00034981778130    8.45773377586823   15.08785715780978
C         3.97229047076062    4.59861287220025    7.31077480597399
H         4.16014077923243    3.54292638478243    7.16360096621506
C         1.83753255072994    3.55535796978579    0.06222054260740
H         1.85735859097334    4.32203217506801   -0.70010733027747
C        -1.78657470299682    0.95689152608453   -1.99319453685768
H        -2.44022475870398    0.11130111832567   -1.85966302987302
C         3.92488371913269    3.11356042464833    3.15169671314674
H         4.10285608639289    2.40728371587526    3.95236690792647
C         2.77863211505813    3.75096340180895    1.13617591531243
C         2.83115145944970    6.39086432545933    8.44699995233543
C        -1.88329230494620    1.75838348709481   -3.14339568754400
C        -0.14153794422778    7.68923177382119   11.52370412273139
H        -0.10405417584881    6.62407436873274   11.35503957072727
N         4.65960988879244    4.22824465435309    3.17602570876929
C         4.46469981946430    5.10980581359011    2.19266665358939
H         5.06856512780862    6.00736777620674    2.22709533368064
C        -3.58208638449384    0.26926765804571   -4.05335675151898
H        -2.92582684086698   -0.60674230665953   -4.04289806420789
H        -4.22435969653591    0.20408330642666   -4.92820812660079
H        -4.21893887780370    0.24186526228119   -3.16591566968611
C         1.88219264472742    6.81815040974556    9.44382240353343
H         1.36076659513463    6.01209322630951    9.94177815869458
C         1.62619942510389    8.09390679975060    9.79208503133899
H         2.16839298189146    8.89089589622076    9.29932051100112
C        -2.08653721303938   11.40545881931330   14.02291062670616
H        -1.98890720048661   12.03025003835814   13.13220765093846
H        -3.07379288957527   11.60821483771749   14.45185472240030
C        -0.99741025857278   11.80477351844216   15.03977413383582
H        -0.01075688648225   11.57475192335754   14.63155634196651
H        -1.13046084457014   11.22859226502415   15.96695268491487
O        -0.99264751438314   13.18429118646124   15.29955178939609
H        -1.83502183071017   13.43818832876629   15.69304320894408

