45
CSD_code = UPURUU | q = 0 | S = 0 | Stoichiometry = C23H17BrN2NiO | MND = 4
Br       -2.22935700873267    4.82378746039680    3.64429783322725
Ni       -1.05525439393712    3.98332073197698    2.03814594007889
O         5.64323541181288    0.67947812388999    3.25775844621175
N         0.81292613508373    4.39316162642981    2.80849910725319
N        -0.00006891307187    3.10190670395467    0.76647313415483
C         1.12632565047024    5.22473460470010    3.79353609704022
H         0.30959957917648    5.55705368122389    4.42227326423134
C         2.42200604924147    5.65947432933051    4.02312318170177
H         2.62768635842263    6.32795446217230    4.84323770335180
C         3.42544242532703    5.24098204244683    3.16402304062254
H         4.43985780337668    5.59125702270549    3.28241969301837
C         3.10806880592245    4.36459571127334    2.14127682023780
H         3.86247604656755    4.03805872086908    1.44495727369023
C         1.79361555867784    3.92603125910222    2.00860125811734
C         1.31955040653401    3.01067675925913    0.96050320919540
C         2.09569456118523    2.12976273710139    0.19617815294410
C         1.45454197752265    1.44958575454931   -0.84187368892433
H         2.03369240136417    0.77710065770996   -1.45768222871534
C         0.09945346982936    1.59846060535211   -1.05792717618030
H        -0.39252226698725    1.06500032749469   -1.85481879751346
C        -0.63065207617341    2.41739659189717   -0.19766082892715
C        -2.06373661367305    2.65706432442480   -0.16937011896292
C        -2.96012882476944    2.16538339681890   -1.11303335274030
H        -2.60084675038490    1.55229714909623   -1.92725894556733
C        -4.30332221326923    2.46834008885999   -1.01297153384004
H        -5.00046716990785    2.08979604532424   -1.74603249713494
C        -4.74699158742486    3.26250750434181    0.03003356105685
H        -5.79594913021784    3.50752160809039    0.11216861131975
C        -3.86422121660285    3.75312465361148    0.98398685832749
H        -4.26419186628091    4.36303026159836    1.78071587972673
C        -2.50368339301233    3.46526555715141    0.91476840758146
C         3.50790484546009    1.83276167263897    0.48352798575249
C         3.86642033952814    1.40663006938540    1.76212801107296
H         3.09780721477101    1.32348130621828    2.51528096428533
C         5.18793623145755    1.09267938150008    2.04680608748053
C         6.14987060846387    1.20261420859515    1.03812287445153
H         7.17166242887710    0.95636451580324    1.27770910283558
C         5.78760532406621    1.61209336772604   -0.22697031766914
H         6.53772555430065    1.69095959238845   -0.99918813160357
C         4.46806375659952    1.92336758565302   -0.51510360271355
H         4.18687567654017    2.25657230123165   -1.50288582391206
C         4.72727645387699    0.55481244220523    4.31898436702810
H         5.31207596788997    0.22245062526082    5.17483903668795
H         4.25286703350288    1.51297512076778    4.55622542985955
H         3.95502934858988   -0.18917269251944    4.09937571186204

