35
CSD_code = UPUROO | q = 0 | S = 0 | Stoichiometry = C17H13BrN2NiO | MND = 4
Br       -2.63568365604292    0.53688151002128   -7.33495402743890
Ni       -4.45061404931952   -0.54676045146689   -6.89976662399832
O        -2.98990881475230   -4.37882565368897   -2.41368864428386
N        -5.65618413078431    0.36469671661987   -8.30228667434475
N        -6.04143763119269   -1.44932494312071   -6.55298472140338
C        -5.35196255778187    1.30851520975393   -9.18263508450785
H        -4.33005300639162    1.66684783191119   -9.17249757782153
C        -6.27609621082080    1.82445080170724  -10.07807436013574
H        -5.97809559733699    2.59126256233759  -10.77433544928957
C        -7.57248476968405    1.33618531425203  -10.05565948693464
H        -8.31908596598541    1.71314005562500  -10.73846080756223
C        -7.89674000785605    0.35181112153820   -9.13894920138846
H        -8.89680036234899   -0.04867288126837   -9.09732003503314
C        -6.91558705731830   -0.11697118346948   -8.27090726699023
C        -7.13737411156213   -1.15593966292243   -7.25990149991459
C        -8.33974580948830   -1.81050625873048   -7.00909940590948
H        -9.22664971067931   -1.57696695512137   -7.57493926224692
C        -8.37646256797118   -2.77346679324761   -6.01131784325937
H        -9.29922626051324   -3.29272620330516   -5.79957257593774
C        -7.23201408583403   -3.06598330875279   -5.29034416734055
H        -7.24467007870769   -3.81147563513592   -4.51250860067136
C        -6.05637583584192   -2.37799304086996   -5.58551669182149
C        -4.74752914169723   -2.51428344951526   -4.96817463112387
C        -4.45790430770833   -3.40441959087671   -3.94545194700553
H        -5.21391607712912   -4.06070013722648   -3.54321287803428
C        -3.17380079284777   -3.47019266727150   -3.41399799303539
C        -2.19349882394646   -2.62884245054304   -3.92526872299762
H        -1.18680903778845   -2.65045026079025   -3.53813717560030
C        -2.48321385270898   -1.73611749594878   -4.95032494150104
H        -1.67758983597525   -1.10943043866091   -5.30369404208832
C        -3.75559144268526   -1.64628867659792   -5.50510462948035
C        -1.70966577917919   -4.49150628082907   -1.84106336694009
H        -1.79454623517080   -5.26636623851117   -1.08072460133829
H        -0.96281429991169   -4.79266129087989   -2.58258435808624
H        -1.39656809503775   -3.55471917501542   -1.36914070453462

