51
CSD_code = UPUTEF | q = 0 | S = 0 | Stoichiometry = C26H16Cl2N4O2Zn | MND = 4
Zn        0.32541693487521    4.17662136868578    3.77336183458176
Cl       -1.96449070378117   -0.40800446032173   -1.26722752534747
Cl        0.04584251192355    8.08706233240367    9.79587615426126
N         0.63337882826399    4.51260566614603    1.89042007179861
N         0.52449143922921    4.20427826278281   -0.29542287957027
H         0.31465375219288    3.77949881749986   -1.18212785428535
N         1.83608125798554    4.26893005875028    4.98438051835383
N         2.98465471961786    4.80799279961735    6.79399707761038
H         3.21753448801166    5.22997390068465    7.67604078650162
O        -0.38933707317752    2.50905573851094    3.53197734431486
O        -0.67149548588223    5.43449644926509    4.65047211311162
C         0.21774701060414    3.68978106364875    0.93226409109460
C        -0.44664654994436    2.43172689671790    1.12558583414300
C        -0.71336893152641    1.92249253313179    2.43515039460558
C        -1.37382866249472    0.66792326332876    2.51645927979102
H        -1.57171033813789    0.29015593970761    3.50759035064948
C        -1.75394221226181   -0.04119381150744    1.41113311920288
H        -2.25641761670009   -0.99135147019344    1.50729992677773
C        -1.48579761545599    0.47854247478301    0.14393036730157
C        -0.84888657680483    1.68460454416854    0.00376987110238
H        -0.66717736993975    2.05048103777741   -0.99538256600707
C         1.21804644423563    5.59152009235743    1.27799531792977
C         1.15783830190380    5.40758840190703   -0.11698747534322
C         1.67960211159630    6.33964753147267   -0.99840271739020
H         1.63135434045444    6.19609793182103   -2.06678793499273
C         2.26337810851622    7.46346139163549   -0.44434708426387
H         2.68198547877842    8.21540139539310   -1.09565320283993
C         2.32333957403606    7.65308160615374    0.93738273580551
H         2.78669656574182    8.54966448724788    1.32038187210806
C         1.80552388723331    6.72646367530432    1.82001740794891
H         1.84045115860180    6.86688843689942    2.88923044142372
C         1.81388861793300    4.97537055159423    6.11038377340507
C         0.73993247090582    5.81331228674703    6.56443973058107
C        -0.45083630779802    5.98439646002593    5.79128916393965
C        -1.44981670621042    6.83927340425675    6.32750739725476
H        -2.34511631147177    6.96407734449092    5.73857427429063
C        -1.31100318462378    7.47700086929132    7.52896530027738
H        -2.09107968365997    8.11747723972867    7.91052875358204
C        -0.14259302303220    7.28863890542654    8.26831355542125
C         0.85822930353787    6.47777233995897    7.79851565975335
H         1.74244706365479    6.35835581106129    8.40571908190605
C         3.04317720037926    3.61954028433165    4.93277501815406
C         3.78749684972976    3.95593396873986    6.07996644646289
C         5.05845920193332    3.45125138336168    6.29918633373740
H         5.62529492039483    3.71082372866041    7.17983551183421
C         5.56509025418566    2.59789446188097    5.33723758374906
H         6.55191881968152    2.18104227504232    5.46921781969934
C         4.83151477322783    2.25841523662900    4.19926356363462
H         5.27012709221869    1.58445508905829    3.47922386395655
C         3.56453662515337    2.75958315447803    3.97600765597860
H         2.98711424616421    2.49739684945377    3.10317184200795

