53
CSD_code = UQAFUO | q = 0 | S = 0 | Stoichiometry = C20H22CdN4O6 | MND = 6
Cd        8.26404761482441    5.24303633872973    4.93914698030710
N         7.54743316174884    7.24032311209511    4.66789831873319
N         6.81137966677347    9.12473757379207    5.57170154004080
H         6.72586671330376    9.88021973266956    6.23134178486812
O         8.13555661848033    5.62520359584379    7.12004371089827
O         7.44989367591795    7.10846095563302    8.63112773448927
O        10.43950319275411    6.04468192681679    4.13395161699005
C         6.48017716340124    7.68461905231806    3.92145526059317
C         5.88352991420639    7.14331598293239    2.78948016002436
H         6.26991985149463    6.23359567056384    2.35521624433885
C         4.80669203317007    7.82376345329478    2.25657601122360
H         4.31702454790905    7.43609549309894    1.37606442325110
C         4.33170321072065    9.00723634701171    2.82420229819268
H         3.48651448121324    9.50392652398310    2.37243752119915
C         4.91763645077088    9.56077313262848    3.94743446319064
H         4.54971242552534   10.47682822405392    4.38321486924313
C         5.99814794344704    8.88392388147047    4.48703899479797
C         7.72217165757712    8.11767199075516    5.63715876187791
C         8.67654929470435    7.94080866003809    6.72744880019473
H         8.79129106152346    8.83598130363715    7.33506773656657
H         9.63427263103027    7.57004141597843    6.36110336312157
C         8.01817074725315    6.77289115855526    7.61504761375671
C        11.60079641693089    5.24970250919693    3.96386564347251
H        12.04360875075412    5.09505647276796    4.94787840915641
H        12.32112992893768    5.76640355268207    3.32052381527893
H        11.36440575303644    4.27810100785203    3.52028458671858
H         9.96223113779911    6.03166155096639    3.28449684963260
N         8.98029764228971    3.24551486805154    5.20934801008942
N         9.71282686713037    1.35967081853364    4.30563354193354
H         9.79674244442482    0.60389501933795    3.64615453424983
O         8.39440122462454    4.86017650227323    2.75827401082443
O         9.07217293049501    3.37557835261631    1.24499676145399
O         6.08871082722215    4.44204995703422    5.74283941544620
C        10.04796340756824    2.80031617485157    5.95462925050017
C        10.64663136648415    3.34160184974786    7.08553505421948
H        10.26171189721331    4.25198705895317    7.51970391266016
C        11.72335422324511    2.66020990470752    7.61745894917866
H        12.21464492401556    3.04779871798071    8.49709204304038
C        12.19626618005776    1.47590170711326    7.04983778426229
H        13.04156983283360    0.97859244671711    7.50070139352492
C        11.60823095130781    0.92233225373502    5.92773481912946
H        11.97467468767192    0.00564635863075    5.49203817660390
C        10.52778078743851    1.60008099821952    5.38912007357905
C         8.80329255977859    2.36794150027517    4.24070811479161
C         7.84798788337030    2.54590187227444    3.15139363228977
H         7.73097573286548    1.65068993105428    2.54427134984034
H         6.89125329515089    2.91832317935678    3.51877093445911
C         8.50703103848918    3.71226974762780    2.26250614031120
C         4.92760789264665    5.23700689601052    5.91395218559419
H         4.48546649806551    5.39344748913912    4.92992382551123
H         4.20687819512692    4.71929364821915    6.55604451789107
H         5.16412629534298    6.20774335142082    6.35932084961437
H         6.56673436993285    4.45476877675251    6.59200320684065

