47
CSD_code = UQAFOI | q = 0 | S = 0 | Stoichiometry = C18H18N4O6Zn | MND = 6
Zn        5.01505841034787    0.00100419700144    8.76316168813451
O         5.77256735767563    0.80712628364465    6.76422747112037
H         5.76166298606197    1.69139379352769    7.15745626821368
H         5.08088462272250    0.80042114961904    6.09620694490019
O         4.61407830370506    1.97508690181348    8.91272071589091
O         3.22019929518007    3.70235846490213    8.95948942926612
N         3.16488415399866   -0.21399364565932    8.01358187480144
N         1.10903110981930    0.49365022961549    7.60919185866652
H         0.26141186549062    1.02742477241406    7.70709201784465
C         2.69581939523336   -0.88060591257878    6.90501882716254
C         3.29611738654246   -1.84304811880032    6.10430690688639
H         4.28810741574108   -2.19627791614057    6.33120909380236
C         2.56125995443768   -2.33193237808103    5.04247658333650
H         2.99417426964578   -3.08470791353794    4.40153203857869
C         1.26750634492583   -1.88250028999314    4.77522816825881
H         0.73117722624852   -2.29374839026014    3.93361712358756
C         0.65428955266766   -0.92799716871652    5.56513749360821
H        -0.34785704327286   -0.58370027052989    5.36104932983987
C         1.38562000228055   -0.43617316208487    6.63272318876705
C         2.19660778000061    0.58546434741298    8.41551521966148
C         2.32894418729630    1.53588144456128    9.51298635880654
H         2.67570146424706    1.04167387207645   10.41791903332789
H         1.41425821163227    2.09679413497768    9.69374613211709
C         3.49934417668323    2.53243747680211    9.09089442403321
O         4.25756562209942   -0.80363301129660   10.76282867844076
H         4.26752566471371   -1.68815996457200   10.36984674507190
H         4.95059210794574   -0.79692909784038   11.42972152958302
O         5.41435736589233   -1.97415413317625    8.61510395512989
O         6.80676111358457   -3.70249405011445    8.56700705322525
N         6.86612686924288    0.21491903863127    9.51097131255246
N         8.92089247391217   -0.49592416238414    9.91536987595748
H         9.76756321269428   -1.03123138890259    9.81761274065169
C         7.33645045792737    0.88118834002530   10.61922590408050
C         6.73786323471699    1.84496993870814   11.41961307696745
H         5.74645443108988    2.19977847810136   11.19261771200835
C         7.47362945713160    2.33294087177936   12.48124298740146
H         7.04205648416555    3.08667078372417   13.12197845965342
C         8.76660578615287    1.88133739812655   12.74861124246201
H         9.30365414285430    2.29188454468771   13.59010949306249
C         9.37815196566561    0.92554223057548   11.95897298991824
H        10.37970503556074    0.57956511548908   12.16312126277952
C         8.64593435439761    0.43466855366970   10.89155489341557
C         7.83307282400308   -0.58623820196052    9.10919278464116
C         7.69913683644409   -1.53691476828522    8.01219381903991
H         7.35196250009986   -1.04277132471889    7.10738674829770
H         8.61321119718937   -2.09861912891891    7.83088136423392
C         6.52837843320675   -2.53242796333242    8.43584718081290

