60
CSD_code = UQANEG | q = 0 | S = 0 | Stoichiometry = C27H26N3PPdS2 | MND = 4
Pd       -1.92442747169003   -2.13655932809684    8.01760506190173
S        -3.04538845958659   -2.60610657483528    6.02999789145235
S        -3.06272699517067   -0.07135327655325    7.52885426900984
P        -0.62424733949750   -1.55615569915273    9.76681631706619
N         0.35889726740585   -5.74016326050790    7.98623884920042
N        -1.77109074624364   -6.22376161422678    8.87920033766770
N        -4.32065628508343   -0.43701995000306    5.24798848028014
C        -1.26373673688287   -4.00675902483399    8.16098024171190
C        -0.00467787438804   -4.47631542136260    7.80493324137725
H         0.75324612383089   -3.82867181017657    7.36505469964568
C        -0.54015303396025   -6.54264045498548    8.52459171126654
H        -0.23749622295585   -7.56968808557263    8.68854313339361
C        -2.12989506704596   -4.95944873584490    8.69054941495804
H        -3.15416312717044   -4.70783522739456    8.98283333331887
C        -3.54922362961600   -0.98276497464183    6.18164792477651
C        -4.76794047130309    0.94116816510618    5.27540018332516
H        -3.93733320375729    1.60170298198249    5.53642297655743
H        -5.54824198529571    1.06092702309265    6.03651560173981
C        -5.31229760106114    1.17117582032734    3.86933544820692
H        -6.08042367389876    1.94061110627248    3.84567343599405
H        -4.50306190483597    1.46232072846481    3.19855428755573
C        -5.84114863356091   -0.20983426749627    3.48329284995978
H        -5.94253580840510   -0.33898317737514    2.40832070732215
H        -6.81164439342850   -0.38192323271717    3.95002035424197
C        -4.79943536873801   -1.15056675942640    4.08095817884264
H        -5.20649572168314   -2.12225201169425    4.37241611480332
H        -3.96653410687728   -1.32704323329337    3.38966078953952
C         0.27544866828262   -2.91765572273419   10.56240608346365
C        -0.50473786543052   -3.85070370263924   11.24451458334587
H        -1.57170963449898   -3.67734311226742   11.33253407470682
C         0.07332573880344   -4.98459698652032   11.77825586338929
H        -0.53637128306158   -5.70937192287237   12.29666891124737
C         1.43495922102241   -5.19982082961181   11.62543352739662
H         1.88661530809746   -6.09408915905409   12.02774365760131
C         2.21239296777946   -4.27800684932995   10.94650963350071
H         3.27064014828192   -4.45249535895797   10.82090055905900
C         1.63743160562613   -3.13804775568901   10.41042341703348
H         2.24312969669789   -2.42763494657979    9.86579425105888
C         0.65380341538172   -0.55362144165770    8.94085803434795
C         0.68618013070430   -0.56513322641208    7.54645695307384
H        -0.04623094058439   -1.17713544740118    6.98908646186172
C         1.63027568461126    0.18702894402493    6.87052005291722
H         1.65596495818681    0.18007925273783    5.79074171231899
C         2.54124731570821    0.95365738270432    7.58022711707432
H         3.27592106404511    1.54276593465968    7.05158490650161
C         2.50935156655156    0.97053119436475    8.96566210085991
H         3.21923545623903    1.57159537283639    9.51484401647010
C         1.56785954761136    0.22135209468090    9.64803201740121
H         1.53342369396987    0.23499617425010   10.72894889215351
C        -1.11319945622176   -0.47617116028669   11.14859546835149
C        -0.81530299099749   -0.75330508022681   12.47795714743246
H        -0.27807384120200   -1.65481074877633   12.73682098040584
C        -1.20872815393736    0.12998589916989   13.46839319069420
H        -0.97645324473419   -0.08709924141613   14.50089464209418
C        -1.89643228873787    1.28672920389469   13.14114360003575
H        -2.20210155912496    1.97072870813345   13.91903884029640
C        -2.19481129069415    1.56516300376572   11.81630365330319
H        -2.73249759751515    2.46568276880796   11.55903880822732
C        -1.80735346142384    0.68691863747774   10.82291978828059
H        -2.04217010852314    0.89256841585715    9.78654121902731

