27
CSD_code = UQAREK | q = 0 | S = 0 | Stoichiometry = C8H12N2NiO4 | MND = 4
Ni        7.45146628983928    6.55462574719283    7.06490918635985
N         7.35705897712756    4.17874657521567    4.89219670903161
C         7.62149399193757    3.90656580212282    6.16732210611865
C         7.13315244168070    5.43440876149661    4.51640538976664
O         7.13019946346612    6.46047437470354    5.24157212441117
O         7.69592976477141    4.71849355983759    7.12254480830037
C         6.86828495407005    5.61447984757807    3.04600447095575
H         6.33263415132909    6.54403415898618    2.87719604036224
H         6.31081228075546    4.76372163826785    2.66807315669743
H         7.82397551819157    5.65627709130245    2.52663850779222
C         7.85146116961177    2.44927719188135    6.46382113438889
H         8.08319587511411    2.31787336730882    7.51642384500782
H         8.66745776113606    2.08404091321870    5.84603379354119
H         6.95762348040762    1.88913715021640    6.20138822757699
N         7.54332496540795    8.93011636537327    9.23814308660230
C         7.27889910583884    9.20231733742024    7.96301526702328
C         7.76714418750463    7.67443900040647    9.61394993799194
O         7.77033772169265    6.64839335294870    8.88875946266965
O         7.20473531882073    8.39043471035705    7.00772601237858
C         8.03222134091093    7.49440736602274   11.08431833183400
H         8.56793511405417    6.56488154516336   11.25308532882682
H         8.58969104227053    8.34519686434884   11.46218984972653
H         7.07658042262759    7.45256825014948   11.60376812486658
C         7.04907854017195   10.65962521157771    7.66650030863438
H         6.81744686107212   10.79105128384863    6.61387547998430
H         6.23304121172483   11.02488031673100    8.28421564168124
H         7.94291804846470   11.21973221632363    7.92902366746958

