109
CSD_code = UQAYUI | q = 0 | S = 0 | Stoichiometry = C58H42N4O4Ti | MND = 6
Ti        4.15407382945089    8.04641944831084   23.17576621795485
C         2.26256769252306    7.89035756797977   19.68426305924480
C         1.46393116920107    8.57996802967082   20.59789047849317
H         1.16295914967516    8.10550904757614   21.52231819875637
C         1.02534423273595    9.86252304886120   20.31961518556493
H         0.41417007081640   10.38565533122251   21.04146875760453
C         1.35495995620494   10.47332266613244   19.12275242957190
H         1.00520310483248   11.47203363615896   18.90676664896858
C         2.14071978347224    9.79623783965082   18.20577038976461
H         2.40495383065425   10.26636320276464   17.26946797304618
C         2.59944835639523    8.52443540445404   18.48744434366775
H         3.24454342001437    8.02125473292699   17.78183052960426
C         2.78827715976906    6.54152806382532   19.95876794160583
C         3.23995283446154    6.21897067736133   21.26120278972429
O         3.03169248318985    7.06339840907792   22.25737239062059
C         3.90124817192579    4.99047154423324   21.48444858491015
C         4.03272233595425    4.09300213849204   20.42895187928333
H         4.54859286394340    3.15879994037486   20.60005410358645
C         3.53731045899456    4.38656888761352   19.17186312537503
H         3.63912356576798    3.67071721065901   18.36990476737688
C         2.93508269478317    5.60925288590415   18.93862856169927
H         2.56167197513635    5.84389677089404   17.95275929014793
C         4.46692659345047    4.63060231350023   22.80420714228794
C         5.27425048135313    5.54239662318279   23.53334226644751
O         5.43634128882446    6.78161759422050   23.12988748002806
C         5.89792639472272    5.09085613628434   24.72639198918679
C         5.65691028342952    3.80320406213183   25.18963276702257
H         6.14535664913133    3.47091996708936   26.09480069555190
C         4.83085351017790    2.93883389477489   24.49580528801828
H         4.65096325558304    1.94142693113121   24.86867138650977
C         4.25688460164605    3.35156957796572   23.30621072307203
H         3.62262150104883    2.67259961926770   22.75362981165639
C         6.76463158710345    6.00734349258105   25.48455933610882
C         7.64088616814254    6.87429657608833   24.82938510079972
H         7.70927454563976    6.85027853220329   23.75145418195412
C         8.42751544155014    7.75472587974277   25.54890829254840
H         9.10188718890205    8.41859196049477   25.02605853357682
C         8.36031084348010    7.78735951647037   26.93243652645499
H         8.97233398114042    8.48135175069715   27.49100143655781
C         7.50996519093093    6.91871132707790   27.59447759543634
H         7.45294142714798    6.93273940390333   28.67284026782391
C         6.72311485540903    6.03624747529503   26.87876315602061
H         6.05305971214870    5.37610396834018   27.40950488152746
C         5.93845634390106    9.23089704888515   19.48222011221665
C         5.83384112339107    7.88579645045579   19.83308019170707
H         5.12177831486682    7.58107556236117   20.58674948184554
C         6.62857355788107    6.93018159254705   19.22593138527577
H         6.51633957850262    5.89317251779888   19.50867928925803
C         7.55385314041819    7.29624034651121   18.26340067190928
H         8.17324992795349    6.54962277420710   17.78775764160502
C         7.68627315946176    8.63217647508866   17.92203862690404
H         8.41690065028503    8.93144293249218   17.18355042822988
C         6.89028112627224    9.58777446628578   18.52436728502870
H         7.02279152706810   10.62746969078113   18.26214355946326
C         5.08117138312643   10.26593058559016   20.08689015875601
C         4.68972137071128   10.20149745839307   21.44720465591745
O         5.07146347382234    9.18523037473642   22.20586642416391
C         3.98569631856265   11.29261652966953   22.00930682777912
C         3.60183598408059   12.35070499670912   21.19079345980508
H         3.03003937973748   13.15983124719451   21.62256825661970
C         3.92221055137169   12.37374854824531   19.84770621364444
H         3.59880833419830   13.19453928833986   19.22529779686889
C         4.67276850275359   11.34635808333702   19.31175855281153
H         4.93311059430840   11.36760384376097   18.26415174180726
C         3.67389275894139   11.41096483624549   23.45298872289882
C         3.02946867351457   10.37863035712676   24.17775007287867
O         2.85179952326467    9.19414259679747   23.64329376927585
C         2.59082477661811   10.64423189443314   25.50233722403464
C         2.89448912615476   11.86407548989855   26.09513934564140
H         2.55076298650622   12.05863476345918   27.10108638888645
C         3.59556083595277   12.83696839481584   25.40740528764538
H         3.83201716307151   13.77681852057595   25.88411315892014
C         3.95595497393849   12.61467523142332   24.09031222970922
H         4.47413143473313   13.38650527756038   23.53867489794961
C         1.81704965425769    9.63469602296511   26.24324657271452
C         0.86056965898227    8.85250495236611   25.59370849469975
H         0.69067370025181    8.98988391957550   24.53579449317870
C         0.12224848221883    7.91624134674927   26.29306708170450
H        -0.61673787775379    7.32161808397765   25.77426861364215
C         0.31700282252100    7.74403389809806   27.65361853723848
H        -0.26560263679711    7.01403076592448   28.19770934524522
C         1.25787664127402    8.51826177238507   28.31072764759241
H         1.41904769130079    8.39018980032153   29.37102988900462
C         1.99903452438876    9.45373034957221   27.61450902173629
H         2.74577376809933   10.03166779985826   28.13708897013829
N         3.39344917349862    6.94172929274980   25.00740365704270
C         2.57293954414878    5.89669328119395   25.00842853407569
H         2.12132668476455    5.64260166424097   24.05605723526424
C         2.31457469553559    5.18031484637946   26.16212993588180
H         1.66022048627288    4.32403167756615   26.15749629265650
C         2.93577888374221    5.61459910044809   27.33575409871754
N         3.72326706547888    6.68006624325428   27.32658525767384
C         3.92577789220522    7.29450475995930   26.17544673817403
C         2.74742890597422    4.92033039933240   28.63906462911942
H         3.04475050963674    3.87655169584276   28.55519414578255
H         1.69783485826176    4.94795700628832   28.92542700582503
H         3.34260525123301    5.41287877936783   29.40140975454214
C         4.80408996848656    8.47950190246389   26.15259287411553
N         5.24977727427787    8.85520908732543   24.95504920793071
C         6.01592157072619    9.94072477291336   24.91042525320162
H         6.39592047303197   10.21777969335781   23.93311917546785
C         6.31628205331425   10.66313219027837   26.05096028354281
H         6.92199780945699   11.55345728906020   26.00808022673678
C         5.80460686868150   10.18906086441782   27.26020017756570
N         5.06485823194750    9.08930764652720   27.29376282253074
C         6.04714780143412   10.88431815409075   28.55389202348330
H         5.52410934128150   11.83984046692823   28.55674670686316
H         7.10814651778920   11.08311665020778   28.68719788574845
H         5.67938047384943   10.27151256168916   29.37086704655010

