131
CSD_code = UQAZAP | q = 0 | S = 0 | Stoichiometry = C72H50N4O4Ti | MND = 6
Ti        1.30506084045103    5.06314522478727    3.75594226365782
C        -2.73947232896350    4.20491684085268    4.70761727008981
C        -2.03496264551109    3.31223541416717    5.51769675040832
H        -1.27551304388987    2.67799223788047    5.08227008655146
C        -2.30797730435582    3.22040850859313    6.87057022971435
H        -1.75280495425314    2.52007387619149    7.47936625158835
C        -3.29090736727942    4.00848070563570    7.44533672264343
H        -3.50319738252134    3.93259409450841    8.50251504862585
C        -3.99804533021893    4.89598685717438    6.65177473475855
H        -4.76685375826515    5.51547510292890    7.09070056383363
C        -3.72639343384985    4.99441117860010    5.30162368611497
H        -4.27298608310989    5.70703779088242    4.70322868982137
C        -2.48031984460105    4.28951478770345    3.26070081075098
C        -1.16747165320470    4.10799222287434    2.74427717799815
O        -0.14676807492769    3.98487201016009    3.56031011312421
C        -0.99122920173343    4.08678133472304    1.33417457385139
C        -2.07547462499814    4.36239110572795    0.50769783537830
H        -1.92188783444257    4.38103994378134   -0.56213941577113
C        -3.33266383040160    4.61669833155652    1.02346926155401
H        -4.15905874339300    4.83506786968551    0.36347100652832
C        -3.53263270021675    4.54680852403903    2.38888739404742
H        -4.52878887223428    4.67225664102520    2.78767718096228
C         0.28060834480472    3.67003878229387    0.69925879001319
C         1.54457554880285    4.16161493224817    1.09477235153700
O         1.64755110332074    5.07455251184638    2.04360828735508
C         2.71401263237047    3.67613509951059    0.46029851940979
C         2.59420413948240    2.75871219615845   -0.57625288425700
H         3.48437372604826    2.41327384105271   -1.08078075254941
C         1.35518130807778    2.29554699584656   -0.97802059932535
H         1.27813210582772    1.58049386314704   -1.78342505598406
C         0.21559635684287    2.73786818235904   -0.33374546320029
H        -0.74941665840952    2.34462580648549   -0.62057559513910
C         4.04156542276811    4.09120038976789    0.94527291242538
C         5.08221383412829    3.16179315302052    0.97424467288022
H         4.89375433633524    2.14243694145612    0.66994574166166
C         6.34235939599526    3.52100381956630    1.41032417497421
H         7.13698889824693    2.78869677230322    1.41576374398242
C         6.58633428211919    4.81057649979033    1.85051395429119
H         7.56987668221028    5.08944608542218    2.19923475333171
C         5.55868921842283    5.73692684275426    1.84681763853146
H         5.73921159551502    6.74402126855706    2.19491052743045
C         4.29991193302623    5.38823602872143    1.39102129876655
H         3.52017112520861    6.13756322594927    1.36594445277266
C         3.38924811489288    1.35716235320856    3.73183530543111
C         2.21071792394930    1.52364434030386    3.00608225952774
H         1.84459711085241    2.51857877306230    2.79832048044223
C         1.49956992464233    0.43061310745753    2.54492378325550
H         0.59558828626596    0.59095507712804    1.97454953955903
C         1.94133147023033   -0.85495709291471    2.80672369353883
H         1.38664231983898   -1.70862924235898    2.44478865948710
C         3.09716008284938   -1.03698670863098    3.54791580538900
H         3.44290935312639   -2.03627595551159    3.77324001684377
C         3.81089710095237    0.05396421715349    4.00621905233805
H         4.69690462385215   -0.10837454256517    4.60276401133565
C         4.18522749296456    2.50271820398239    4.20750359845537
C         3.57571438429956    3.70536765146245    4.64281823600249
O         2.25828410905637    3.84893530844125    4.61214821125989
C         4.38781168508190    4.70953668937632    5.22341044873418
C         5.76719369823772    4.54284176715395    5.26123866389040
H         6.37525735962706    5.33303933838563    5.67828380086334
C         6.36276709152560    3.39932191617617    4.76535849862571
H         7.43704379246956    3.29297032805431    4.78259907185051
C         5.57120794685282    2.38627450474505    4.26292242011425
H         6.03601480989895    1.48832464431205    3.88393836315115
C         3.81262721563910    5.90358943943742    5.88264041462300
C         2.86175411826056    6.73124750041383    5.23886834744293
O         2.42001773636117    6.43649883564902    4.03866454841066
C         2.39279228597759    7.88393777832188    5.92130858219965
C         2.84582657685159    8.16256943213870    7.20501672471168
H         2.48592073910082    9.04940858738760    7.70775899885115
C         3.76608208367745    7.34136032872763    7.82878672401810
H         4.11487965627634    7.57280696298614    8.82428574767423
C         4.24469189377217    6.22560104122689    7.16424519947981
H         4.96131029594987    5.57775019351692    7.64972832852119
C         1.38602622286827    8.74696802767376    5.28380480928054
C         1.47707663166123    9.08654160702872    3.93384571208286
H         2.32212182089412    8.74149797276938    3.35606960289516
C         0.50204917524866    9.86574480996409    3.33821451224653
H         0.58720107947781   10.12298845903420    2.29128122457965
C        -0.58126300247803   10.31845142963041    4.07381797635670
H        -1.34878102638238   10.91606414486965    3.60271223707060
C        -0.67281931336447   10.00332188722271    5.41863464902792
H        -1.51193653802412   10.35509703629112    6.00025807576255
C         0.30288797678109    9.22972088003830    6.01855704488343
H         0.21634446248890    8.98308169950879    7.06762565695355
N        -0.21156228419915    6.64942756166945    3.35437403549566
C        -0.58289156682172    7.02864795942461    2.13330193864870
H         0.14540212701596    6.87382026974383    1.34450781780661
C        -1.81764250270377    7.59837624717754    1.89146277950031
H        -2.11987607941058    7.88116240869587    0.89623560570666
C        -2.66254752490354    7.79643455950603    2.99274121726802
N        -2.26415205382852    7.42779132677271    4.21449229726616
C        -1.08863058803160    6.85647539534014    4.33843574295516
C        -3.97409227107501    8.38115313221537    2.85916967744204
H        -4.27988585479722    8.63646617989397    1.85546561558977
C        -4.76624846177553    8.57750574025941    3.92788846033914
H        -4.35794912497733    8.28730932483182    4.88793743760039
C        -6.10268566829756    9.12825979222402    3.93993439808231
C        -6.75660838095318    9.57784310383267    2.78801492766439
H        -6.25956241678561    9.52562808346097    1.83202769394575
C        -8.03538384994345   10.09264406891993    2.85980146421054
H        -8.52694037814449   10.43617545647412    1.96144247641109
C        -8.69246479641180   10.17044392139102    4.07838655224136
H        -9.69290872237663   10.57315857602478    4.12917691330797
C        -8.05965141724352    9.72910475353009    5.22967377786325
H        -8.56831634222204    9.78733871061139    6.18064641871096
C        -6.78020287379508    9.21522368313537    5.16148383125797
H        -6.28806014775796    8.87072277263239    6.05947752619500
C        -0.70047166956269    6.35949795656496    5.67242996808165
N         0.36347813621935    5.55364296968932    5.71257097996441
C         0.70589217978236    5.07390417658576    6.90440744346948
H         1.56682148571519    4.41409101774070    6.92473214793904
C         0.00573067469212    5.39415663790309    8.04981460221109
H         0.30542743239025    4.99683398522845    9.00457280012543
C        -1.10276646472545    6.24415126475408    7.91186275766842
N        -1.43155916328942    6.71549899431451    6.70578165417306
C        -1.96755230204698    6.67232290905624    8.98564192693424
H        -2.75545199052998    7.33050989105022    8.65243273132590
C        -1.85860845603826    6.30737335537344   10.27332689835157
H        -1.04852874708411    5.65405866765670   10.57184015775920
C        -2.73511494095525    6.70709805621301   11.35492405775777
C        -3.90214121051199    7.45185258084172   11.15632644125020
H        -4.18589065705009    7.74966511738168   10.15941094891094
C        -4.70296588477708    7.80333631108221   12.22405028044866
H        -5.60207000609495    8.37720881913211   12.05404767602848
C        -4.36107651344953    7.42308670248701   13.51289118372954
H        -4.99038797912930    7.70079720613917   14.34496775916790
C        -3.21005917449698    6.68217963525137   13.72724004389033
H        -2.93983313895053    6.38109449936860   14.72850032060039
C        -2.40861649946911    6.32600082721829   12.66084476758420
H        -1.51193986293252    5.74800881721232   12.83439510485636

