63
CSD_code = UQAZOD | q = 0 | S = 0 | Stoichiometry = C30H26N2O4Zn | MND = 5
C         1.05011209806488    3.94724308560351    1.60583992083271
C        -0.29694362691173    4.05980859061004    1.20266600750122
C        -0.70649165745452    5.15154408847715    0.38795698678477
H        -1.74291004845956    5.20134928739280    0.08714691291583
C         0.17612055227444    6.10689858536646    0.00817238792518
H        -0.13553268173504    6.94278397344693   -0.60077216833417
C         1.53987320500684    6.03410620311406    0.40248805676476
C         1.98607303153785    4.94689915634832    1.18160872880843
C        -1.18301866888756    3.06088031163767    1.64300796832461
H        -2.22145335128113    3.09980785126310    1.34583742934115
C        -0.71198167317023    2.05824350331550    2.44635917473952
H        -1.37058061337440    1.28203892382292    2.80458006612348
C         0.64882323923387    2.02571769840182    2.81011245104042
C         2.49454229802481    7.00615633010154    0.05465168648009
H         2.19471186703032    7.85626576118272   -0.54047764553773
C         3.78524192518427    6.86532941454208    0.48797196567197
H         4.53353716960111    7.60326190977664    0.24401156861803
C         4.15086836046285    5.74169866133481    1.25333689506747
C         1.16309839884492    0.95813089527594    3.70651260735412
H         2.07721251404924    0.53827744163456    3.29156729055083
H         0.42653394528255    0.17322428096101    3.85250883426050
H         1.42279902122305    1.38558747990365    4.67525232481966
C         5.53947666443234    5.55054702332928    1.73659339956939
H         6.12341085911219    6.46274196299895    1.65271413437511
H         6.00488417702516    4.76000874752851    1.14795283495838
H         5.51971372303269    5.19593417352958    2.76467082582914
C         4.14533325926099    2.44129771563883   -0.21094787592436
C         4.45484864823446    2.46037730678136   -1.70614743350109
H         5.52454358917199    2.32654768720451   -1.85763006032490
H         3.89226893993623    1.66515632028384   -2.19350445998903
C         3.99819556642759    3.80921106140892   -2.18048759002427
C         2.64401743877619    4.05298479675619   -2.38144427584866
H         1.93469754876774    3.25758570472899   -2.20643281595004
C         2.20754216463064    5.29900392588818   -2.79094842395343
H         1.15295749090186    5.47164683230578   -2.95239050493461
C         3.11833963246853    6.32174662401315   -2.99861970906389
H         2.77967082051138    7.29187197917163   -3.33277418565997
C         4.46569280046981    6.09400986549474   -2.77866641984184
H         5.18062337150436    6.88950946899858   -2.93266405434018
C         4.90220935471904    4.84720261616383   -2.36690175663101
H         5.95458412933188    4.67367434771695   -2.19496930580325
C         4.59461032636447    1.94211547588981    4.00560911397801
C         5.16765642808679    1.34093055232734    5.28331939241730
H         5.71009508171377    0.42866759819469    5.04118232798144
H         5.82889625270818    2.07021797807511    5.75025286653675
C         3.98415803214061    1.04677094156186    6.16160539628671
C         3.29712793502638    2.09297795326801    6.76798509484416
H         3.64265407188600    3.10530097208514    6.61855860945710
C         2.17564744893806    1.84352899997196    7.53813564631271
H         1.65017244673616    2.66416259713196    8.00532579595014
C         1.72491733387173    0.54455838793347    7.71045680053960
H         0.85044265304515    0.34946118670418    8.31399012070305
C         2.39974974509725   -0.50087813828710    7.10411808285716
H         2.05159147344764   -1.51546172776732    7.23289469656877
C         3.52058807185369   -0.25096593314477    6.33083494094957
H         4.03899023496406   -1.06923894862439    5.85333471435300
N         1.49112397063094    2.94685004164488    2.38431760343686
N         3.26198805765656    4.81932513998438    1.56609867217320
O         5.03862253751171    2.78474833398442    0.58961927161708
O         2.98926626645545    2.17003026709069    0.16083104849905
O         4.18873907062028    1.17430163932804    3.10720662415067
O         4.47467853304089    3.17881655302896    3.90868607717528
Zn        3.59973854490124    2.81876853616960    2.06839533024559

