45
CSD_code = UQEBEZ | q = 0 | S = 0 | Stoichiometry = C18H18N2O6Zn | MND = 6
C        -0.66461534902322    3.42891042809285    1.82673857338188
H        -1.20309570349337    3.41921427712378    2.76275107014068
C        -1.30148688792246    3.08480103288814    0.62937635574806
H        -2.34284540809830    2.80413185002258    0.63612957115533
C        -0.58065854479932    3.11155406820554   -0.53913274242102
H        -1.03496875295988    2.85354071939372   -1.48494468603877
C         0.77430384726911    3.48151078149013   -0.49846971381582
C         1.32287367127338    3.80699313617696    0.76218760345751
C         2.70398511114551    4.18608796269934    0.85212997365050
C         3.48753252283832    4.23536952388936   -0.32249301819224
C         2.89876924148908    3.90163084286517   -1.57637031354804
H         3.52022604799676    3.94545540868671   -2.45858312207431
C         1.59689283521141    3.53808074416373   -1.66054726952856
H         1.15295025620719    3.28357102237164   -2.61164092724106
C         4.46076069781005    4.84026874631253    2.16092167295167
H         4.81098567385872    5.07493100244276    3.15512563032731
C         5.31923602930005    4.92422651742979    1.05926139037300
H         6.34557347585773    5.22455529109255    1.19955283511739
C         4.83298898999831    4.61759576818840   -0.18787909142574
H         5.46400772362542    4.66576093395279   -1.06367666131315
C         0.51438310168212    6.45500038898211    4.56890340923136
C        -0.21060790563561    5.37246554465435    5.43111131356163
H         0.09259507788295    5.51899477823739    6.47691856567624
H        -1.29503396867134    5.53128361405058    5.35897396122477
C        -0.31368965714129    3.04137388907223    5.80054112691275
H         0.06372383210353    3.15009615975827    6.82405730313222
H         0.06212327332864    2.11306577789237    5.37431684333268
H        -1.41026977721476    3.02303531239845    5.83077229146786
C         2.95577620691833    1.93810417604482    4.72932515080176
C         3.56148283839923    3.03335955057700    5.66374688991333
H         3.17166283382648    2.86470930409946    6.67707027751490
H         4.65292968785637    2.91099840281765    5.68749612680892
C         3.58200789048323    5.36339043073164    6.04806272671419
H         3.13017956785887    5.24507751397911    7.04008438016912
H         3.22455326702073    6.28660144063384    5.59565027916362
H         4.67263908661928    5.40069221678086    6.16196698124911
N         0.59786084559624    3.77780018136137    1.88756271839229
N         3.20370358697211    4.48160965711471    2.05870728682732
O         1.34955371487124    6.01715429175472    3.71978228823083
O         0.14461835386058    4.08666698507106    4.97426530086076
O         0.24042595841045    7.61831125760711    4.78063165279833
O         2.19722355728254    2.35922805004624    3.80376509420295
O         3.24169482220996    0.78102065785636    4.95962057021478
O         3.20549007409191    4.31206805304140    5.18881065349226
Zn        1.78005825380315    4.19080230794829    3.54921967740047

