57
CSD_code = UQEBID | q = 0 | S = 0 | Stoichiometry = C28H22N2O4Zn | MND = 6
C         6.04280519038411   -0.91385796350495    2.83504123362318
C         5.50519542624457   -1.97505838610728    2.07514184881389
C         4.10187423210879   -2.01921600832825    1.83182915574097
H         3.71207506843636   -2.84002463584691    1.24750843356193
C         3.27740113785623   -1.05855369268951    2.31525672089183
H         2.21439425000832   -1.09532304052030    2.12613391001463
C         3.78465852441641    0.02521415159579    3.08888017921923
C         5.16960600433561    0.09931823864191    3.35165541930881
C         6.40526032500419   -2.93882052977418    1.58970944827205
H         6.03363508782056   -3.76879979384317    1.00582328596118
C         7.74396807956966   -2.80359500238763    1.86387637714324
H         8.46295095229509   -3.52113306326587    1.50283333610415
C         8.17570989554260   -1.71259540695423    2.62655851501605
H         9.21908713966620   -1.56855446329969    2.86503026708662
C         2.97362012579800    1.04132257487994    3.62200900364374
H         1.90819643493968    1.02236354809784    3.44205584431381
C         3.55253455756242    2.03891124454752    4.36714055905320
H         2.95993773799044    2.83116563294526    4.79533121142127
C         4.93703403588373    2.02095966496122    4.56975302435011
H         5.43267918421295    2.78634340160238    5.14837826147954
C         8.69601234522189   -0.59367783175095    5.82837382072371
C         9.15192095355949   -1.83098413048831    6.59227049203012
H        10.23746373903449   -1.84106739840054    6.66970905147056
H         8.69407869889289   -1.82602671905479    7.58107735018631
C         8.65218175234127   -2.99169565616689    5.77673481159825
C         7.28309376156960   -3.20331557320951    5.64691735091475
H         6.60054602466351   -2.54011121961756    6.15753192068339
C         6.80217259233130   -4.23215192407568    4.85944225264594
H         5.73608303171234   -4.38438429321353    4.76494947535368
C         7.68336555684414   -5.06861559960120    4.19315467981689
H         7.30793537511592   -5.87755029585565    3.58324472499173
C         9.04642128875644   -4.86327562930178    4.31497652401640
H         9.73915457819995   -5.51243943945637    3.79885132966292
C         9.52803496772566   -3.82666780873538    5.09657501229526
H        10.59311479212889   -3.66732259067078    5.18149896220701
C         7.94074351926422    2.98346567946579    3.22381000374639
C         7.63026705722033    4.30338472950585    2.52835974196689
H         7.89271176000016    5.13687282072543    3.17713951809834
H         8.18806260333578    4.35135345056403    1.59345811420700
C         6.14977259598568    4.26053169470925    2.26606070307878
C         5.27376523847006    5.10999309593488    2.92772374071286
H         5.66086993568428    5.84499408755427    3.61831923755090
C         3.90967362982074    5.02478127999517    2.70516318706217
H         3.23929759079172    5.69903602720634    3.21859539051577
C         3.40435195501798    4.07994647740603    1.82956376589271
H         2.33994121907112    4.01340646050755    1.65668223447910
C         4.27129796689008    3.22053015759065    1.17387222624388
H         3.88287846788096    2.47719100097444    0.49179861006235
C         5.63340851089538    3.31231741363921    1.38830671762708
H         6.31253493177141    2.63638332632171    0.89006081179268
N         7.35023696724775   -0.80899057713633    3.09566154600347
N         5.71060567014032    1.08623985436137    4.07377696068066
O         7.53986510934149   -0.16497909956368    6.00807120172005
O         9.45361839800168   -0.10013003106032    4.96652428490805
O         8.12262890308781    1.96455725125909    2.52984770216281
O         7.90342056207870    2.93126723601995    4.47124741755462
Zn        7.82984455975692    0.90726730287891    4.27230309028723

