71
CSD_code = UQEFON | q = 1 | S = 0 | Stoichiometry = C35H33N2Ni(1+) | MND = 7
Ni       12.60515719645503    6.56616635406971   11.10427565569971
N        14.15387436185386    7.62039873808350   10.81052596933323
N        13.43048993010613    5.25438998006971   10.00942942868453
C        11.35090119544557    6.37477176235004   12.82131821842529
H        11.54582676411744    5.98654061542421   13.80694246100232
C        11.47740964528624    7.71754402593967   12.40642315348241
H        11.77126598128194    8.54822219404265   13.03122761919279
C        10.89123397430716    7.85422192671631   11.09443842447576
H        10.69376374837874    8.79213630660884   10.60172219189675
C        10.50667154187736    6.58714849350597   10.67105966892865
H         9.94992404704386    6.33981279342308    9.78203605819226
C        10.84992474186408    5.65337960251254   11.71711241574798
H        10.57278374300171    4.60941039725541   11.71571880782421
C        14.93642600196142    7.04883009892584    9.94549547475426
C        14.52974933764992    5.71777075254543    9.49506200212587
C        15.53724181373114    5.22068188364029    8.57992781726361
C        15.73891293705683    4.06283372539288    7.86469396491699
H        15.03424492283556    3.24577415717825    7.89677354296129
C        16.90149135717733    3.95707275761222    7.08069503131056
H        17.05442766791153    3.04836718940660    6.51861668448674
C        17.84283124956856    4.95687141907763    7.00576577484424
H        18.72029519254411    4.83023774303445    6.39005220890825
C        17.67522108383206    6.15601747139534    7.73638947438905
C        18.54739604378580    7.26812627253251    7.78592453500867
H        19.45872548289725    7.25242711986077    7.20771351218822
C        18.24336616087374    8.35881989318523    8.56645893310535
H        18.92760859807210    9.19322430350896    8.59248117037138
C        17.07300053202282    8.43780268603398    9.34204620897879
H        16.88406539206214    9.31268561950877    9.94541612035721
C        16.19574304589785    7.37853847271131    9.30915133807560
C        16.51274161515930    6.25080716108863    8.50541637981093
C        14.40664067394991    8.91328047532070   11.29518417930920
C        14.20035481938245   10.02773050962543   10.46794602653627
C        14.43740281839248   11.28526623699607   10.99235364785943
H        14.27549584229820   12.15175465941300   10.36828476705009
C        14.87145387475824   11.46444380702608   12.30290897532898
C        15.05113035520357   10.34448277830136   13.10470434928065
H        15.37943666568220   10.46767498189885   14.12597172649506
C        14.81525238706471    9.06640762908621   12.62691614479257
C        13.70318100589567    9.85057129103752    9.06555439818370
H        13.24458142647132   10.76826990241875    8.70784558075512
H        12.96788947213860    9.04515692554266    9.01351155563245
H        14.52397337224769    9.59848835484413    8.39296435469692
C        15.11959285885258   12.84125978755084   12.82690434335624
H        15.47459586744968   12.81366779204917   13.85300906851595
H        14.20349147290333   13.42915889460679   12.79077390109923
H        15.86033969538562   13.35212776612830   12.21364777703648
C        15.02378195196870    7.85619649139412   13.48304351346746
H        14.96600749428027    8.11426105023390   14.53661466275641
H        16.00591293603742    7.42274257431321   13.29115756137337
H        14.27326050340674    7.08876736669954   13.25633289348907
C        12.90565487070137    4.00880371998899    9.63132426563202
C        12.93345422135592    2.95537021841198   10.55589104722384
C        12.40649478896154    1.73151380377238   10.18114730225021
H        12.43755066392432    0.91189142271117   10.88343034731674
C        11.83947279414597    1.53700462001822    8.92729339105474
C        11.79769022149284    2.60806835696229    8.04013514514859
H        11.34011004302725    2.47298381188356    7.07122780261187
C        12.32093132732316    3.84656401532787    8.36643951693107
C        13.56361420322281    3.16055106755563   11.89832956200622
H        13.17923990890196    2.44338662298440   12.61794294032970
H        13.37402078357562    4.17740606867944   12.26370037497293
H        14.64422069453215    3.03077771392923   11.83167394323623
C        12.23899533191687    4.99983602240086    7.41320626982603
H        11.45358591099575    4.83080937799236    6.68169549635842
H        13.17963535613133    5.12596142507268    6.87573721412001
H        12.03014564581883    5.92944887189940    7.94624301270735
C        11.25300490243350    0.21725607252444    8.54548196166250
H        10.17184682247132    0.23944378420770    8.68424007638733
H        11.65568580132940   -0.58311157168869    9.16010253042611
H        11.44685490790245   -0.00480661576273    7.49871812604281

