43
CSD_code = UQEMEJ | q = 1 | S = 0 | Stoichiometry = C12H18CoN8S4(1+) | MND = 6
Co        2.80017409775929   11.49364377646777    3.72696484492925
S         3.56439666025734   12.33298814155543    5.70683444886075
S         2.88183324212320   13.57800443883163    2.80259870313064
S         0.63603642582407    8.40329507628842    5.84949147547676
S         3.55470746825819    9.73155344532500   -0.15229272130445
N         4.57607641783603   11.10938904064996    3.36617205304198
N         0.45057764710194   13.01473485596864    3.75828335657579
N         2.48756264169865   10.75443706506974    1.97476776298678
C         1.34177715262530   10.63991828066963    1.10483771417189
H         1.02635916157849   11.65043731893414    0.81626558970570
H         0.51455190595636   10.17248781337940    1.64632304811190
N         1.02560368191326   11.87809807173728    4.08923385387954
C         3.61515094752527   10.38905217898100    1.44360437393158
N         5.55542721750526   11.37095073955579    4.20579115815239
N         2.41434064943860    9.82482968163564    4.61410222556934
N         6.14596650106660   12.25266838021820    6.22936738136696
H         7.11516802100636   12.09629524765613    6.00773662085511
H         5.89938528644504   12.75372538719088    7.06577654782262
C         4.81460961995257   10.56757313055844    2.20117209547582
C         1.22122077890163   13.89457874302323    3.15628223781397
C         6.16377237768768   10.19386647652707    1.70011114343851
H         6.92100585730510   10.68225570884425    2.30703587827008
H         6.27326885297207   10.48741007122598    0.65825630956748
H         6.30755560711861    9.11508668015049    1.76012861095773
N         0.70684568197534   15.06664012339821    2.78550692109347
H        -0.23846736356279   15.29843934611378    3.04185787986344
H         1.30318733504312   15.77246318552054    2.38833066974009
C         1.72651205477877    9.81241431319879   -0.13057003465308
H         1.39040796755136   10.26691942714073   -1.05898534683942
H         1.35636514460818    8.78920934623435   -0.07687788120940
C        -1.06357454422658   11.06788577610569    5.13595523149959
H        -1.57179471678539   11.77805299964990    4.48873280236045
H        -1.12366547963431   11.43857073331689    6.15943453634211
H        -1.55531848764584   10.09887153101828    5.09817373102896
C         0.35937646232104   10.94895841676481    4.72244403224095
C         1.17551850172525    9.80955678404932    5.00438457546290
C         3.19517329137741    8.68230735965085    5.02267787196426
H         3.91152593465413    9.00956849588771    5.78646581037995
H         3.76552371152434    8.30445734934840    4.16938177719928
C         5.20736576852110   11.95626588801122    5.33123667247194
C         2.25747481254680    7.59948493804800    5.57821432154132
H         2.60275794733350    7.19454719418262    6.52610199927308
H         2.10245775803753    6.78280704191542    4.87418971745239

