25
CSD_code = UQENAG | q = 0 | S = 0 | Stoichiometry = C6H10Cl2N4S2Zn | MND = 5
Zn        5.14998820395012    8.08588949234582    8.64283560971814
S         5.02052466606650    9.66717321898481   10.80238754986578
Cl        4.51081390512412    9.16117524392614    6.84095255270084
Cl        7.29134795575578    7.32985479993803    8.87900391800638
S         3.67788641617229    3.69284373380712    8.53408170666166
N         5.01177257435597    6.75875448874869   10.56067824734312
C         4.23939970984508    5.27913424601349    9.00977895904961
N         5.69388451274776    7.22597208168301   11.59874415713967
H         6.32473322633112    6.61014029282513   12.11246342238602
N         4.06222526177402    6.22289374594892    8.17552435136584
C         5.83325223526875    8.57379561695995   11.74898323613237
C         4.91253371729906    5.51561905350626   10.27301610039751
N         6.59672067034065    8.98634291872186   12.77522223206078
H         7.23785453934085    8.36452574243723   13.24103642954275
H         6.76561355555467    9.97640064575296   12.84421275338244
C         5.50860975208804    4.38679511816636   11.04957670805335
H         6.58847163627006    4.37547573742514   10.89001434217412
H         5.10251727734787    3.43823031467151   10.70999879307284
H         5.30939069306851    4.49629584520748   12.11539548098235
C         3.40723682468704    5.86886965566555    6.95620356458404
H         4.06770860674179    6.13689762877636    6.12657880099470
H         2.51099878549043    6.48926167327141    6.86344781309342
C         3.06555601266163    4.36427842410085    6.95210646728379
H         3.56086933310605    3.82492851309823    6.14682427203017
H         1.99398992862801    4.17845176801867    6.90293253198659

