91
CSD_code = UQEPEM | q = 0 | S = 0 | Stoichiometry = C42H42N4NiO2 | MND = 4
Ni       12.24750266376871    2.35389279431919    5.55197484969755
O        13.38866371416496    3.53838417724148    6.41459881479994
O        11.35621339317753    2.09621947665419    7.15965107753794
N        21.87652113827925    9.51514473531886    3.01316880303116
N        13.25505639640014    2.41232625917381    3.99517840861919
N        10.98226256498276    1.37383308023775    4.61035297156014
N         2.32656128866526   -3.41272318257345    9.87691399695145
C        21.35840144464010    8.58868692494112    2.22203411440252
H        21.83634689250421    8.48181399540798    1.25629318751709
C        20.28225195940512    7.79432254773622    2.57091203254418
H        19.89253427095542    7.05039629456555    1.89261216108479
C        19.70313399654494    7.97440106288330    3.83124362007915
C        20.24981197822433    8.95299763092306    4.66765155410719
H        19.83487101468204    9.12667235236308    5.64884680497264
C        21.32747853808442    9.68539123457320    4.20586782166184
H        21.78100108617707   10.45242598144755    4.82095513576019
C        18.60529474983798    7.19621249258351    4.24568381261388
C        17.66280781142937    6.52768936638867    4.60112345364948
C        16.56401990455869    5.75877831598073    5.02865951828623
C        16.03376157083279    5.95889908687464    6.32278121362202
H        16.51099547001750    6.71338772624143    6.92682614404316
C        14.97004833048749    5.24977422837249    6.81027880654178
C        14.36180294191704    4.24684445196029    5.97427905177237
C        14.88660929673066    4.07020164393820    4.65317906689134
C        15.98368257095493    4.82061934824451    4.20592734764695
H        16.36628716414715    4.66367955606168    3.20699749206906
C        14.40136176873210    5.50454596499241    8.19827894266306
C        12.94012068073603    5.95122112124882    8.05377248374142
H        12.88479846735421    6.87660794344239    7.48273925733338
H        12.50258430904734    6.12229146023151    9.03445959444331
H        12.35640998116072    5.19179741584841    7.54264435820220
C        14.48385866360411    4.21369078145327    9.02191525651267
H        15.51827722582469    3.88410487519563    9.10222231517610
H        13.90032255218027    3.42885845441314    8.55403712248415
H        14.09668627612193    4.38653925256966   10.02320766844263
C        15.15843597404324    6.60010406051749    8.95600751852369
H        16.19999082604629    6.32666735197020    9.11080946112685
H        14.69976358793351    6.73571903438214    9.93331271582144
H        15.11142585676071    7.55202615580085    8.43143598517008
C        14.30769090204235    3.12511281753683    3.76620053537554
H        14.82388685640243    3.02055407615078    2.81395226683884
C        12.77578023404751    1.42582374133689    3.02692379787511
H        13.15121293242091    0.44385877893191    3.35664688655568
C        13.17667253577287    1.62633334005824    1.56503318578026
H        14.26115734549542    1.58770255090881    1.45273412840702
H        12.82505125147548    2.60043774793099    1.21723081075716
C        12.56471687853860    0.51161682144048    0.71837642155722
H        12.83011775419496    0.66418239037999   -0.32884483859215
H        12.98233499343028   -0.44781541892401    1.03181329313148
C        11.04897028791879    0.47625102848352    0.86674734068032
H        10.62626180814802    1.41214310974718    0.49426335259991
H        10.63753967825968   -0.33708465284215    0.26699816320048
C        10.64080102443927    0.28714488429792    2.32663856356614
H        10.99482974975481   -0.67782294686517    2.69671553808404
H         9.55160317462498    0.30020537078655    2.38258003517848
C        11.24344338569216    1.41152544033133    3.17050268315409
H        10.86035929983777    2.37354462272811    2.79410351373910
C         9.90810888913945    0.82950063045691    5.07959029755759
H         9.20422739594165    0.36535058699436    4.39141639449470
C         9.53695511880454    0.75182670638434    6.44699996775400
C        10.33754998298166    1.37779594506425    7.45664391233314
C         9.95594819133364    1.18449633435701    8.83208409633364
C         8.81624370927654    0.47921279974259    9.10734212764468
H         8.49900559536723    0.32938678480799   10.12658846780459
C         7.99905144403589   -0.08533888784920    8.10240623101263
C         8.37331648183142    0.04540290852794    6.78458311150513
H         7.77529090072955   -0.40284175450612    6.00337060730123
C        10.83110026623636    1.76314137119302    9.93396237685867
C        12.24324128120025    1.17574919002335    9.80441967449218
H        12.21201228710679    0.09296214749400    9.91443270527299
H        12.88935095913740    1.58415604102338   10.57792876909989
H        12.67176574377704    1.41529398673653    8.83607720997730
C        10.87664488615332    3.28851368067807    9.78612254009373
H        11.49073047188159    3.72039563522221   10.57269147106429
H         9.87348751371508    3.70454771869042    9.86094188425174
H        11.29914295538522    3.56004893053019    8.82543481103096
C        10.31058813221278    1.43410841447525   11.33690029520351
H        10.26808642637964    0.35967523906079   11.50264983149423
H         9.32479327709694    1.86238568879259   11.50484012779799
H        10.98852449795831    1.85897060221502   12.07431220813586
C         6.82903954477841   -0.77979844033072    8.46345579068006
C         5.82439593134498   -1.37352556644479    8.77889580626288
C         4.65107563232053   -2.05962431136882    9.14685921015475
C         4.31572379406900   -2.24475537590482   10.49208224993146
H         4.95724097298469   -1.86324150051083   11.27184322403376
C         3.14970913659638   -2.92410588485868   10.79169596839802
H         2.85309366084133   -3.08972518184736   11.81973854169875
C         2.64475362855470   -3.23722946086397    8.60388237365680
H         1.94533449837897   -3.65185993260023    7.88858967611214
C         3.78243175928721   -2.57613436245577    8.17999765305560
H         4.00094661955607   -2.45659983929175    7.12957076850713

