51
CSD_code = UQEXAR | q = 0 | S = 0 | Stoichiometry = C22H24N2NiO2 | MND = 4
Ni        7.47940068741762   -0.00002004429982   19.20945706368144
N         8.13881960717590   -1.58993522810393   20.18226877713658
O         6.28932633555410    0.36006685763797   20.54912812414803
C         6.60549815905619   -1.45506861244773   22.06492220293336
C         7.66441019169370   -2.01590760071219   21.30678225384152
H         8.11808846742714   -2.90828768894431   21.74734771269765
C         4.55720381243490   -0.37378283894708   23.59733269914548
H         3.75860835620674    0.04206904115695   24.19612545782919
C         5.18451343443772   -1.55387781372064   24.03222381355457
C         9.28658999645169   -2.33050418677902   19.66884920090486
H         9.30566204728363   -3.34505706561837   20.08563079845413
H         9.20367519099197   -2.38808323902643   18.57971033433071
C         6.19388535353548   -2.07116776344051   23.26131735578864
H         6.69648907194824   -2.97842334971139   23.56943668919473
C        10.55313956699656   -1.60380440293918   20.01645769704806
H        10.56358868101793   -0.56263581731475   19.72101552994616
C         4.93038472383559    0.25477284414626   22.44235932653513
H         4.43781661332427    1.15917141540734   22.11704218953683
C        11.57707548397793   -2.15246447933338   20.64076580898529
H        11.57488358158653   -3.18821371798025   20.94184631470980
H        12.46967345684517   -1.59531301534748   20.86833661261171
C         4.74447403231632   -2.20521880481926   25.30900865134445
H         5.29272914392411   -3.12746831796527   25.48367889540470
H         3.68005398060484   -2.43448016760483   25.27304460113570
H         4.91237008597925   -1.53736973342197   26.15367251998940
C         5.97006013842728   -0.26058909101464   21.62681720721777
N         6.81988840788172    1.58981135386759   18.23656848214767
O         8.66958134826312   -0.36000389107473   17.86985918365511
C         8.35338589328234    1.45511016206182   16.35404400696067
C         7.29431808792928    2.01581351211471   17.11207281591115
H         6.84053262276847    2.90810417655315   16.67143681152943
C        10.40220156478281    0.37424696550944   14.82203319650148
H        11.20102745754123   -0.04141422101941   14.22341793035451
C         9.77467678379806    1.55416566559178   14.38696259334310
C         5.67198637373164    2.33023189711236   18.74989623947170
H         5.65276136629945    3.34474893535518   18.33303519324087
H         5.75486208545662    2.38791607335168   19.83903343004498
C         8.76507195450817    2.07126260040369   15.15769616402300
H         8.26229278940301    2.97837779607238   14.84945311814325
C         4.40556934693576    1.60329411515100   18.40229327732155
H         4.39531898238491    0.56212793572218   18.69775574784485
C        10.02891889865819   -0.25438402180550   15.97693252628583
H        10.52159997686460   -1.15868916671859   16.30234277424013
C         3.38150422357531    2.15176444660785   17.77803309936229
H         3.38343765342981    3.18755352881663   17.47708367204890
H         2.48895618570983    1.59448229247985   17.55058509307255
C        10.21490921482203    2.20560699847796   13.11036329808999
H         9.66511216058121    3.12638450165267   12.93434883431579
H        11.27854581418740    2.43722412580983   13.14740352851970
H        10.04967038539594    1.53711697404603   12.26601648051840
C         8.98895022135762    0.26074006500334   16.79225466494701

