34
CSD_code = UQIFEH | q = 0 | S = 0 | Stoichiometry = C15H10N3O5Re | MND = 8
Re        4.01455455620659    3.48276736444964    3.53153796971670
O        -1.84997537446822    2.19912322466622   -4.87304390633727
O        -0.89167841093862    3.42693158359635   -6.35659234825312
O         7.05519170286948    3.99513841710503    3.67781746779020
O         4.05892451028079    1.37271072190322    5.78630451928225
O         4.24556453191961    1.41613396377944    1.25041628908121
N         2.16927764121489    4.89175410186180   -0.01938589704816
N         2.26354950067122    5.22056358635306   -1.30557865112079
H         2.95534380860154    5.91390175641066   -1.59972479568123
C         3.53955316551328    5.79921476433970    3.28522215541996
H         4.24290648916090    6.60878626399784    3.15359834774390
C         3.01947265243235    5.34871440677786    4.52220322961028
H         3.22569463349407    5.78907139299198    5.48643508154736
C         1.98096441550209    4.41199455875675    4.24459379907745
H         1.30259266848279    3.99424318112449    4.97423101936541
C         1.88791363684777    4.25545361724820    2.84757223647237
H         1.12095380827239    3.71868210893216    2.31260780248765
C         2.84262383899658    5.13358644494537    2.23333796281059
C         2.94197948380079    5.44553376005683    0.83335921688360
H         3.69496368175491    6.18955840524869    0.53776461507615
C         1.45324762436416    4.67064593891997   -2.25717068074181
C         1.57486051535589    5.08726943711862   -3.59003413097592
H         2.30981289583764    5.83435217732753   -3.85145554610275
C         0.76162050803767    4.54949093614687   -4.55761204932170
H         0.83702882262153    4.85855515858882   -5.58870675695410
C        -0.18399542045573    3.58676874495499   -4.20782684379106
C        -0.30900513794813    3.16179148815424   -2.88534710978075
H        -1.04716075990065    2.41207200497554   -2.64572814868507
C         0.50227761270105    3.69873341689278   -1.91658345104160
H         0.42778467996812    3.38691510870576   -0.88815882491755
N        -1.03223976307724    3.03286448796467   -5.21389230213714
C         5.93851909404717    3.74690217990349    3.63201342410715
C         4.08420442005546    2.12920026663342    4.92833034580564
C         4.20957396778097    2.15007502916792    2.12609596061115

