42
CSD_code = UQIFUW | q = 1 | S = 0 | Stoichiometry = C15H20N2O4Re(1+) | MND = 8
Re        0.09516134508093    2.22284287797499    2.33113950485435
C        -1.55562674752184    1.74643399532520    1.39766327808650
C         1.10221798363169    0.92333884905074    1.28763704146312
C        -0.26321893866126    0.91855170622268    3.71421269648701
C         1.54858498953355    3.68330842228398    3.45906617925343
C         1.71906232175489    3.91722932417621    2.05527188112358
H         2.66047388305878    3.83099366499335    1.53481894403416
C         0.50933300901670    4.40794177131475    1.53597659495464
H         0.35924573740811    4.78955655043456    0.53846243625279
C        -0.42047705354958    4.51699833887119    2.61019987677314
H        -1.39293892462920    4.98186409386166    2.55321934283569
C         0.20683069381520    4.07800771520899    3.79085385156182
H        -0.21252533689198    4.17670776522018    4.78195461779445
C         2.66021582391193    3.32123528904449    4.34125570366057
C         3.35239760914157    2.87322537840590    6.65900926056949
H         2.86257527545304    2.70199126384827    7.62127254494900
H         3.94692346062091    3.79354391339650    6.73600960849217
C         4.34533099958583    1.74870074395629    6.34874670550563
H         4.67975857224091    1.86096941917345    5.31572892918974
H         5.20221007356583    1.87251858215289    7.01128654072688
C         2.75953995916348   -0.00539435692041    5.55095239355192
H         2.32007567729025   -0.94809118132072    5.88397155412120
H         1.98520422500074    0.76103968884805    5.57364829561585
C         3.27780333940369   -0.15752219711441    4.13173976359351
H         2.43504008395279   -0.42117946760616    3.49645992051469
H         4.01966616162625   -0.94553844717264    4.04769333700686
H         3.69583706721507    0.76719266362840    3.74662073879685
C         4.90628173126732   -0.62736391184827    6.62043037053449
H         4.47802499480561   -1.60977110032348    6.41401345284748
H         5.63528655006134   -0.39440531836276    5.84381058548853
C         5.56479709431932   -0.64923574196975    7.98909072393396
H         4.84285666081795   -0.88332865799302    8.76898259509415
H         6.05264853819302    0.29107149971252    8.23122351143443
H         6.32683565138010   -1.42338627608713    8.00241457206097
N         2.32255865598898    3.02759237164042    5.64853818546468
H         1.42724995774078    3.34920677829800    5.98138062448478
N         3.80647387719120    0.37855523802516    6.54802301506447
H         3.34410142222568    0.37032432672690    7.46519856769372
O        -2.53263264276458    1.57210645994613    0.84221195111828
O         1.76360282565717    0.22508752655438    0.67299144272473
O        -0.40131904396166    0.22091314242597    4.61819236004166
O         3.80953243687998    3.20276729597746    3.95032650023429

