37
CSD_code = UQIMAJ | q = 1 | S = 0 | Stoichiometry = C17H16N3Ru(1+) | MND = 8
Ru       -0.40076579588230    5.19503727899662    7.06902225846281
C         1.25007559767906    6.55810480807784    7.64469199875893
H         1.35638741126519    7.28796149169381    8.43647429488969
C         0.92489146195284    6.85796253763742    6.28868572139075
H         0.63399002322099    7.83071038215882    5.91673164086083
C         1.15485443110556    5.70991606821876    5.51048741603756
H         1.12294796471759    5.65571241031072    4.43067282993005
C         1.69503386363709    4.69497413299473    6.37540095679363
H         2.12444357991375    3.75858872018670    6.04478836514347
C         1.78366652552445    5.23380866303939    7.66992029094522
H         2.26057092903307    4.76828393868940    8.52115816900484
N        -1.31852975143894    3.80097759957100    6.09190589994230
C        -1.71913643947784    2.95959820183354    5.40948599984185
C        -2.24099588489551    1.92112758012698    4.58009992078594
H        -3.00736574882981    2.32227169804857    3.91636062901746
H        -2.67708560879008    1.13576007447413    5.19782716948080
H        -1.43825046817033    1.49442086919032    3.97867227565397
N        -2.10134917667635    6.23024211441786    7.18468220864916
C        -2.50662546126359    7.09087723916157    6.25021004000445
H        -1.89464587700471    7.15555156499388    5.35908651380957
C        -3.64845826718442    7.85664723652337    6.38314293366986
H        -3.92916648945793    8.54445940386906    5.60259910430150
C        -4.41981981233074    7.72182612961934    7.53177312914961
H        -5.31442200097425    8.30775571044192    7.66695209235770
C        -4.02092849574710    6.81422056802112    8.49522602127376
H        -4.60389375159298    6.67787904864124    9.39079672949749
C        -2.85490711554336    6.07700057662092    8.30006058513555
C        -2.31810586611269    5.08121008664085    9.22122325608477
C        -2.89200378024855    4.71154282275415   10.43581907262799
H        -3.80486774686267    5.17786415247780   10.76708654658500
C        -2.27924064616030    3.74387413549692   11.20996709898788
H        -2.70304575249932    3.44847718202387   12.15613060912180
C        -1.11129929901318    3.15512358160102   10.73903223369052
H        -0.60691507658564    2.39008725514597   11.30591555146406
C        -0.59952711580151    3.56289426913354    9.52245302482189
H         0.29534772163478    3.10834638106927    9.11606603096503
N        -1.17135808114204    4.51080408609837    8.77919138086226

