44
CSD_code = UQOQUO | q = 1 | S = 0 | Stoichiometry = C18H20N5Pt(1+) | MND = 4
Pt       -0.31849665636006    5.50049428130056    5.83525548126324
N        -0.35032004989170    3.57674305675919    5.34701140491241
C        -0.14562610117430    3.32855155587739    4.05122842579850
C        -0.63985433891489    2.15860649321504    3.47983373711397
H        -0.47889015816672    1.93612674224741    2.43861146282938
C        -1.38223523817346    1.29678966019934    4.27412979370699
H        -1.76712384625927    0.37938516270066    3.85752446127964
C        -1.68390187806484    1.64113663307623    5.58379892100818
H        -2.33263214454593    1.01709822162264    6.17476386434065
C        -1.16096133722462    2.82577161930118    6.09629958958433
C         0.56596554749631    4.40709753489124    3.35063810102174
N         0.66382114220516    5.58923588395489    4.02156600338536
C         1.39974084308184    6.58691069621615    3.48773229264822
C         1.93074511865277    6.47384426693304    2.18186515853386
H         2.46497657261671    7.30423876292103    1.75499769197133
C         1.77270092303188    5.30410780979779    1.48825235171997
H         2.17630831010053    5.19718820383008    0.49417528775070
C         1.10786171087561    4.23679669531920    2.09182053129504
H         1.02728227423232    3.29087085546678    1.58555396736651
N         1.62936655771405    7.66043281976067    4.25004217567401
H         1.22998263280939    7.62719237631004    5.18086255770094
C         2.30734887072031    8.85887205434134    3.82351329194397
H         3.34713194966093    8.64999064215023    3.56221326834535
H         2.29569635804564    9.57420195497538    4.64048751622977
H         1.80990621818612    9.30956665398764    2.96181664060572
C        -1.45358099657808    3.40906839664499    7.41334073287620
N        -1.10418782724434    4.71619559481747    7.57601891905486
C        -1.24238139599509    5.28516206924733    8.79219823964127
C        -1.88846260199960    4.59440983028381    9.84367539044648
H        -2.04050561787639    5.08975858719456   10.78637952414713
C        -2.29360007752271    3.30072124420853    9.65214926593903
H        -2.78125496104988    2.75578407589221   10.44446140404599
C        -2.04364158238829    2.68100821134993    8.42782098387939
H        -2.29997197159069    1.64655378572394    8.28030853522268
N        -0.72038009703273    6.50313698658541    8.96640448441267
H        -0.24519111746562    6.89275194596261    8.16045060624047
C        -0.84703924948514    7.30458253109058   10.15770002646962
H        -1.89610534543999    7.47933723293183   10.40678450718922
H        -0.37069134125985    8.26472419343066    9.98275610359329
H        -0.35675506074109    6.82529689738000   11.00816477634144
C        -0.92513845169698    7.47080357626385    6.01831133349126
H        -1.12466036618172    7.85921073639719    5.01127918036611
H        -0.30200660311617    8.22343330441116    6.51356100207599
H        -1.88753861599069    7.48121016302589    6.54604100653030

