37
CSD_code = UQOXIJ | q = 0 | S = 0 | Stoichiometry = C10H20Cl2N2O2Zn | MND = 4
Zn        2.43512748024559   -0.21841248832162    2.91844202079565
Cl        2.17044141273327    0.90560686919361    1.02037268101308
Cl        1.39601885786392   -0.25806370515685    4.88261918013184
O         5.36826991856849    2.46188321047559    4.02465190060410
O         0.25568782996527   -3.51885866159463    1.74905885333970
N         4.58123581615564   -0.24620823225186    3.49104840386898
N         2.80837473190327   -2.29817495623351    2.23220013506349
C         0.76001745914400   -2.52217619446822    0.89725791663806
C         4.51479221098718    1.76490541971358    4.89588187418895
C         2.25039518085319   -3.33078832413751    3.11587945304443
C         0.72248891803700   -3.31495368530440    3.05900133816590
C         4.78897611031219    0.26339124137510    4.85381524607207
C         5.46028891329581    0.50928065495648    2.58839495518834
C         5.18643739764867    2.00906361300617    2.70647468895862
C         2.28685127378222   -2.53213791655967    0.87814465504557
C         4.88302824583211   -1.67907704786537    3.44354422688081
C         4.27246745239878   -2.35285220623546    2.21820675854848
H         0.40992855685428   -1.52927337947175    1.22273590729352
H         0.36831265721930   -2.73211361552528   -0.09884787903208
H         3.46194623979056    1.94661879443491    4.62507001007207
H         4.70038138995945    2.15552422906999    5.89726164521129
H         2.56017062861258   -3.14252331665859    4.14355511900803
H         2.61232365109462   -4.32021102747352    2.79953619802259
H         0.31748463491403   -4.12690508727886    3.66474631181047
H         0.35456580210959   -2.35517500575125    3.44911386029531
H         5.82511068007167    0.07559158519941    5.16851975611932
H         4.10076703403274   -0.24189411682739    5.53226277487341
H         5.27947992572499    0.20508968374327    1.55768736926433
H         6.51086979796222    0.31303485631067    2.84900235089246
H         5.88841923695371    2.56719489613592    2.08519578019315
H         4.16092894819192    2.21831311037720    2.37006120087042
H         2.63778292750544   -3.50500153851648    0.50630874336973
H         2.63787247178353   -1.73757845047582    0.21874862171568
H         4.47266650954155   -2.13514315899319    4.34682250385957
H         5.96956355774155   -1.84543575028768    3.43976539827190
H         4.61599048121364   -1.84039106783181    1.31726751685037
H         4.61983565899564   -3.39464923077066    2.17189252349065

