97
CSD_code = UQOXEF | q = 0 | S = 0 | Stoichiometry = C36H46Br2N10O2Zn | MND = 6
Zn        4.94626564625411    0.43383575219630    5.29553476002003
O         3.89600755667326    0.07883504353731    7.09389246891065
N         3.04347045157350    0.98957658751498    4.49493122435457
N         5.29437116081754    3.01530612268527    2.43190652496451
H         5.11530158447616    2.80244077932015    1.44503087340660
H         5.61906890666930    2.04936848153454    2.88382009080642
N         5.16857331600743    2.27235664672397    5.88434208628641
N         3.09734109115034    4.30768000690761    9.42625562655270
N         4.67635353408919    3.85634984035050    7.62644047721673
Br        4.02687832006595    0.46835060513945   10.08101701399480
C         1.89309810959198    1.29720076413555    6.61459490159963
C         2.88282829102625    0.77486471201875    7.49243643006545
C         2.66938388054829    1.03510879060846    8.86607095058858
C         1.58478054198211    1.70557140925029    9.36859933856319
H         1.50258356521930    1.89611689548292   10.42708305464014
C         0.60238032648914    2.14910230171987    8.49100076341891
H        -0.25937435799716    2.67208257521898    8.87153478707700
C         0.76730027754140    1.94562092615198    7.14250882955910
H         0.02342787746677    2.32044126577553    6.45297144204017
C         2.00059258241610    1.23621222613066    5.18465469180332
H         1.06262721183237    1.48210970569035    4.66546606871182
C         2.91941373979330    1.10157269844265    3.05837243076846
H         2.00343419822800    0.60637308382426    2.71090499109686
H         3.77212393739998    0.59336242728915    2.61439753846803
C         2.86520209566918    2.56733524764023    2.59697860876927
H         2.81556496182538    2.58140973925723    1.50541723292442
H         1.94963799237753    3.02287357351710    2.98003455037425
C         4.03522803736485    3.41896908298556    3.07878332304385
H         3.83611061718243    4.47015795356731    2.84758215408158
H         4.15580401768125    3.30113094574305    4.15779692376842
C         6.41202264183711    3.98356716771895    2.51866380904964
H         6.05360352807774    4.95575152914733    2.15421824171764
C         6.89764394170074    4.12581105827230    3.95745970823877
H         7.17733106846150    3.14322184548312    4.33923241693918
H         6.10072615502820    4.50878265492276    4.59366188941026
C         8.09468229806491    5.07103761165994    4.02534497152106
H         7.78771853457470    6.07087237993395    3.70888548298618
H         8.43917846932461    5.14008135591420    5.05729103115210
C         9.22470125689683    4.58240556217351    3.12631723753257
H         9.57229886879464    3.60803841359228    3.47553071963461
H        10.06517580413375    5.27622094602221    3.17360126631009
C         8.73298891961040    4.45827338632983    1.68848642702185
H         9.53501976491107    4.09267756494109    1.04613053534210
H         8.42988592630097    5.44061318483885    1.31956621415693
C         7.54896734010394    3.49766683500263    1.62090211925625
H         7.87643265648441    2.51304608660250    1.95938510576542
H         7.20182182931296    3.40570187435630    0.58916553303333
C         4.85733985718647    2.96839847949367    6.77696013626252
C         3.82339365299502    4.06161442232505    8.56352884036322
O         5.99655095577252    0.78903216651814    3.49737989402331
N         6.84878888212514   -0.12226770486038    6.09622011755168
N         4.59728878513197   -2.14739500848483    8.15953730159215
H         4.77648086180115   -1.93498646893956    9.14648160400736
H         4.27301044830176   -1.18106989268760    7.70776052311353
N         4.72395612007666   -1.40453089369965    4.70635144794524
N         6.79276479300790   -3.44035098584002    1.16260312825982
N         5.21827639259446   -2.99044318121219    2.96664261648388
Br        5.86523367328383    0.39969788834519    0.51007917896107
C         7.99865104451501   -0.43076694177234    3.97638773286647
C         7.00921393145059    0.09240544983444    3.09868038915255
C         7.22241240609592   -0.16785027106606    1.72499615791570
C         8.30650757550773   -0.83898538091305    1.22230367476067
H         8.38850081767113   -1.02945450912511    0.16378984418169
C         9.28863800477445   -1.28335826750176    2.09978071284192
H        10.14998934990296   -1.80690258026857    1.71911164247969
C         9.12393490263325   -1.07994980376871    3.44830732156737
H         9.86757709945084   -1.45540540033694    4.13774899904232
C         7.89134272427918   -0.36985969995933    5.40633392547418
H         8.82913872525705   -0.61666459973460    5.92539257817662
C         6.97292644392518   -0.23439725524955    7.53276998332216
H         7.88914139680589    0.26042894797973    7.88014491665643
H         6.12047828627771    0.27417671552417    7.97684102562908
C         7.02658305945320   -1.70017735895866    7.99417750161907
H         7.07625967169240   -1.71424276987120    9.08573782983472
H         7.94195456770742   -2.15608883469151    7.61110837669961
C         5.85621342203877   -2.55139382228916    7.51246141439096
H         6.05505087832211   -3.60266840806523    7.74353540205441
H         5.73554011977649   -2.43346623038024    6.43346919087744
C         3.47920848224618   -3.11511083471057    8.07234490052207
H         3.83768245226534   -4.08808199246485    8.43463352331590
C         2.99192094982600   -3.25458212034768    6.63383264174287
H         2.71198750573900   -2.27122726665743    6.25421666009833
H         3.78804793926928   -3.63647628591972    5.99600439364239
C         1.79457644241585   -4.19937839245937    6.56550552104978
H         2.10165336106533   -5.19990130069835    6.87966166563856
H         1.44886224354841   -4.26633496442330    5.53382684224854
C         0.66571714067057   -3.71219718928350    7.46678366455855
H         0.31788886911400   -2.73710998885969    7.11980363718633
H        -0.17494794971950   -4.40576171341837    7.41920043184041
C         1.15913980329193   -3.59082993455074    8.90426818461196
H         0.35791634242103   -3.22632491111916    9.54824973132425
H         1.46252788057060   -4.57390964169504    9.27098359752711
C         2.34339662019083   -2.63053700875891    8.97225093153249
H         2.01572666848507   -1.64525094307537    8.63590645871480
H         2.69172120924161   -2.54047095380503   10.00376207992690
C         5.03538956484461   -2.10114662746017    3.81425619658157
C         6.06846714966776   -3.19463137790185    2.02688266294744

