64
CSD_code = UQUBEO | q = 0 | S = 0 | Stoichiometry = C30H24MnN3O6 | MND = 5
Mn       14.08037599114643    0.76924990892610    1.73910293970626
O        14.58674360624276    2.43111273414563    1.46270497135738
O        13.09568692270326    0.48317527558844    0.32097199674581
O        12.74695242353152    1.33258165116273    3.17046196519328
N        13.68663425059263   -1.13262684471133    2.21201912983610
O        10.25499696913558    1.47713795662265    3.79152900554561
H        11.06744473811999    1.25762277116045    3.27580185002171
N        15.56847003666320    0.42080690825338    2.84494187235183
C        12.00823463651096    2.49659040336131    5.09510027570814
C        12.04582889671834   -0.23398699838921    0.04908003002017
C        12.34845337784041    3.25246512978359    6.21552455543892
H        13.39591488031586    3.45500888072210    6.38110860539445
C        11.19668843883561    0.09856359445334   -1.01998301370365
H        11.42886930242638    0.98068873479238   -1.59762030906818
C        15.76247303906282    2.95317792629910    1.46414641358210
C        11.74964092768416   -1.40017619015918    0.81411369076147
N         9.03078122578994    3.82017132636449    7.69718857006700
C        16.85050837224665    2.34678001728414    2.17206028729336
O        14.28657240360290    2.23026032921286    4.48314715527152
C        13.11060520800237    2.01691967567085    4.21142029245752
C        16.65443830604105    1.13694712315721    2.88521309190647
H        17.46728825933165    0.82016226999088    3.53981817475526
C        12.65214550598302   -1.81407684631495    1.84267855874209
H        12.47126837871806   -2.79677172678705    2.28385594147417
C         9.00249452538558    4.94384336495495    8.30369124830800
H         9.74732271725541    5.72633459645441    8.11687820392089
C        15.45186997001048   -0.67357278759268    3.79175708946783
H        14.92687449742664   -0.28057481747494    4.67059105021497
H        16.43335602626876   -1.05070800837147    4.10331444817917
C         9.68837254895275    2.66530907586112    5.73463786120633
H         8.65193276930355    2.43796118935079    5.54185835031971
C        10.65521629987895    2.20252331149404    4.84779934112224
C        10.61957579400378   -2.16150666415378    0.49343884845409
H        10.40338151631434   -3.04294321917824    1.07985311799106
C         7.00298336710992    6.85022740159289   10.80558196409008
H         7.02380980510019    7.81334382236427   11.29206342558835
C        10.04070837137337    3.43728871862153    6.83589610307370
C        15.99902576870822    4.19066853612682    0.81839318596954
H        15.17515719679194    4.64029717481841    0.28426225118814
C        11.38897369748403    3.72705346806723    7.07825000189142
H        11.66724076460410    4.29205332218221    7.95548135355669
C        17.23106433666014    4.78615315882430    0.85837456585522
H        17.38977141578097    5.72453369559006    0.34730365605841
O         6.86438432890237    3.14923566944088    8.97586087806221
C         5.95742870046720    4.70923015003600   10.48255349282125
H         5.17891126033379    3.99507153973353   10.70067898935241
C         5.99287145350288    5.94050897932625   11.10026921056442
H         5.22918232412088    6.19990576087128   11.81831391435855
C         7.96638002268855    5.26888972869170    9.25141410922156
C         9.78976525750712   -1.79568212250086   -0.54158453898101
H         8.91554858637074   -2.38454612177201   -0.77166147875789
C         6.93579729606087    4.35067064163987    9.55302747685994
C        18.09054496308000    3.00989525528899    2.21704931373801
H        18.89812896546601    2.55264380744881    2.77134757672913
C        10.08369362031355   -0.66231879092404   -1.29672048481433
H         9.43193001416728   -0.37687572951874   -2.10904418740121
C        18.28704320790203    4.19848859105703    1.56508967609859
H        19.24856654152116    4.68751504547310    1.59712107955447
C        14.61670761032026   -1.77198334566517    3.12984402396386
H        15.27219132377197   -2.43254151095183    2.54697046764030
H        14.08819903028457   -2.37557783677798    3.87653950820715
C         7.97413448398295    6.51366803824346    9.89039630661099
H         8.76414506942580    7.21252091099103    9.65360302991648
H         7.62889845410386    3.07151198972947    8.34751951896988

