57
CSD_code = UQUKEX | q = 0 | S = 0 | Stoichiometry = C20H28CdN4S4 | MND = 6
Cd        7.26002932263714   17.99902935136838    7.65295522239912
S         6.64720684367917   17.64621873029082   10.21420393117990
S         9.31570492550721   18.40989200638569    9.21076167748532
S         6.17172730583737   20.16371535906590    6.68399819622520
S         7.89674258582792   18.35563514959943    5.11292440033893
N         8.73244505942339   18.22421068631124   11.75508711802259
N         6.91431119488204   20.65810314272495    4.22342008274075
N         7.81307500638836   15.65708927163906    7.36940475157646
N         5.27620122481944   16.65358795408406    7.20870072846677
C         8.25748205871466   18.10552543912514   10.51010290426701
C        10.10612935780554   18.63106070800983   11.94202784732587
H        10.78133804393131   17.89978956607004   11.49199076293866
H        10.32154076774751   18.71734903112253   13.00182627919750
H        10.28584798077649   19.59224946447178   11.45479115774665
C         7.89757499301742   18.01491505307618   12.92784079878465
H         6.92093789226807   17.70221949490576   12.54534548520088
C         8.45342948320523   16.89374222938003   13.80421713330040
H         8.61761139507134   16.00050805803472   13.20647389298085
H         7.73706991497249   16.65910767169075   14.58687225101947
H         9.39212630752130   17.17697717420943   14.27467835620506
C         7.71669309352450   19.31644432175069   13.70765469557193
H         8.65092472538963   19.65175472970929   14.15222889881197
H         6.99288643580339   19.16483682278530   14.50379993824663
H         7.34513765053702   20.09538632545523   13.04650265472850
C         7.00134915695980   19.79558977149942    5.24201955707378
C         6.14572173190649   21.86887511958293    4.39851428403372
H         5.09982080518895   21.62678452779582    4.60032154310022
H         6.20940953325051   22.47629581239638    3.50189226898036
H         6.52491773943171   22.43749834848257    5.25082231285788
C         7.61056046323607   20.44559341077310    2.96393393587191
H         8.10073475359623   19.47138105361106    3.05571527364483
C         8.68649957605604   21.50943771223563    2.75038974343573
H         8.25280553987899   22.49598037924794    2.60360255664265
H         9.27486519334762   21.25931915162752    1.87176342863183
H         9.34907626028097   21.54381332626802    3.61163548390433
C         6.62682245891514   20.38246203600080    1.79683123053353
H         5.84783929990745   19.65327584812799    2.00543204324632
H         7.15394113295208   20.07721732753782    0.89697340471012
H         6.16143225146846   21.34725639363559    1.60882069960832
C         9.06246156561852   15.26519015937349    7.19221631994237
H         9.82593801615661   15.98442822794104    7.46664067000766
C         9.39247377669305   14.01421269426703    6.69175321949460
H        10.42493221878746   13.73132276124431    6.56223700482562
C         8.36346733026649   13.14978017827465    6.35411145040380
H         8.57568573537018   12.17254399545610    5.94554232365315
C         7.05439978366136   13.55822101541494    6.54356199645539
H         6.23469488150776   12.91314792889709    6.26834052541496
C         6.81399183994001   14.82922372435296    7.06444736535235
C         5.44572693491898   15.33398402493261    7.29656609713902
C         4.07460794155535   17.16857599458543    7.40296698097131
H         4.00324108303054   18.24661653070032    7.31224525710575
C         2.96376234526779   16.39333736753875    7.70181107094135
H         2.00023250583897   16.85317555817527    7.85323966679198
C         3.13059000445558   15.02255420880732    7.81392739810647
H         2.29632114308278   14.38371116857537    8.06447100202002
C         4.38748980206865   14.48076551012030    7.60617979431575
H         4.54971362615860   13.41938099102748    7.71066492605287

