79
CSD_code = UQUPOM | q = 0 | S = 0 | Stoichiometry = C30H40N8Ti | MND = 6
Ti        3.29067442820196    6.91027172304306   11.88995457387726
N         5.19911443326541    6.74877476209462   12.50102790654028
N         7.18382892307961    5.76097100649475   12.06118965965151
N         4.12480697735784    5.68701044427736   10.17862999220782
N         1.67508516133001    7.14390486673574   10.70216830465375
N         0.81569502940397    8.31459723314145    8.96896888470000
N         4.12372938111991    8.42046943773449   10.38329934697242
N         2.75320833777961    5.39437553537141   12.81644023012336
N         2.67555044997338    8.14952948672060   13.11945745532113
C         5.92209898363499    5.95910126822740   11.65267693571304
C         6.05564895638266    7.04743338169354   13.49180735097660
H         5.78524434063591    7.66465127853465   14.33033199081019
C         7.27481868784900    6.43638953168481   13.21186057828710
H         8.18767126649396    6.45621593696577   13.77601031736495
C         5.35401661022514    5.44774271004512   10.45660535076493
H         6.01831557631287    4.87361018605200    9.80376666711935
C         3.55361185768386    5.24593849915056    8.91636444853411
H         3.20532909136753    6.14678654236525    8.39101537378182
H         2.66401442315707    4.64480179387079    9.14613914413600
C         4.47429732916828    4.46042454791672    8.01859927036913
C         4.56623658816508    3.07898871602718    8.13968788681855
H         3.95893367860263    2.56811527218017    8.87378106137036
C         5.42581129481796    2.35883647097847    7.32917244290165
H         5.48683753385367    1.28526270666617    7.42981075592321
C         6.20629980145544    3.01291950855036    6.39099425391160
H         6.87652377488092    2.45097894392834    5.75782171388787
C         6.12534848631807    4.38958597189531    6.26723202664004
H         6.73312633845356    4.90381030550097    5.53741829890741
C         5.26546645674979    5.10900603356198    7.07809475618382
H         5.20267550790861    6.18409140053001    6.98153618969666
C         1.88899924321281    8.09140037703759    9.74193782375226
C         0.39953697796199    6.76553077343609   10.51762036665133
H        -0.08288443541428    6.02442255101825   11.13072143187799
C        -0.12129458294773    7.49220400581438    9.44971733603883
H        -1.10415701329872    7.45453485527149    9.02077700404395
C         3.16166171555152    8.69217836330788    9.57930891003456
H         3.29025004913061    9.35224203619329    8.71167787642384
C         5.42551544172308    8.97777615895465   10.08996024560297
H         5.43940309688780    9.41289830797171    9.07512043056252
H         6.16305810909448    8.16698453652852   10.13167631733766
C         5.80451798587075   10.04919036138995   11.08410074283546
C         5.06606764180858   11.22607086087749   11.14259855105800
H         4.23055293532758   11.36550032930756   10.47088272831324
C         5.38859535286904   12.21024706035620   12.05889833136366
H         4.80893677762524   13.12080653098931   12.09704992517943
C         6.45468968138658   12.02964190049869   12.92452942535307
H         6.70618485954136   12.79797304978801   13.64071193457002
C         7.19948108974644   10.86449886224269   12.86521041233881
H         8.03485464439684   10.72092287273097   13.53442565359827
C         6.87797194419801    9.87841212531849   11.94776009733013
H         7.46354252158077    8.97132560590188   11.90440238821746
C         2.18392319117849    4.21899473760154   12.19612589971473
H         2.91935170963409    3.39361312669938   12.15131571345750
H         1.91697700833608    4.48536829662250   11.16751415949272
C         0.91196931955334    3.69202329695317   12.88732088386624
H         0.41597622487777    2.96946573153597   12.24311228613657
H         0.22753885196856    4.51582632682502   13.08400352821596
H         1.14485592799614    3.20099111642243   13.82866411436335
C         3.10942389775526    5.20242492067899   14.20808648163193
H         2.22708078803244    4.90620844040872   14.80042558857214
H         3.45885171560353    6.16954437820721   14.58950350973524
C         4.21369855536649    4.15360691731389   14.43182223128650
H         3.84406928843841    3.14730492243551   14.24693006318472
H         4.56600733630263    4.20204476907351   15.45952222501955
H         5.05326943780956    4.34407185262166   13.76508744878500
C         3.39396231009568    9.35983931397876   13.44629071089324
H         2.90779174915640   10.24810247287837   13.00208549705435
H         4.39291896443997    9.27645090686547   13.00683841581241
C         3.56087778001310    9.61313998781779   14.95621811886198
H         4.30757810023555   10.38852849858370   15.11140678142394
H         3.88960840900164    8.70164132476185   15.45342771873032
H         2.62995774998170    9.94131246380278   15.41198266861074
C         1.33409497665938    8.09991417842763   13.66395969019499
H         1.35375274713432    8.19955206334663   14.76237786475108
H         0.92273155040967    7.11214278125834   13.42373940069149
C         0.39403018447685    9.17926123007449   13.09821285424732
H         0.44915508530958    9.19007049324598   12.01078382342257
H         0.66090861793888   10.16595946684826   13.47017809335054
H        -0.63116521958357    8.96983895783666   13.39451312785823

