73
CSD_code = UQUSAB | q = 0 | S = 0 | Stoichiometry = C36H30N2O4Zn | MND = 5
Zn        0.75975749559189    3.19071730458931    6.88287081071273
O        -0.30347177598223    3.97370241917442    5.24734838671666
O         1.66296576673428    4.68057151185542    5.86880714218742
O         2.03048850487516    3.10756487127643    8.47185429267347
O         0.14720907129601    4.19773436830082    8.50761047337451
N        -0.59253647385718    1.59594174580102    6.89441687476996
N         1.71636016169554    1.79867437927533    5.65236484657219
C         0.70334607530787    4.68697501803196    5.07188374449166
C         0.82437872926399    5.53781054861812    3.80999654474034
H        -0.12052594719245    5.51904342619303    3.26755415940203
H         1.05941926927751    6.55932460712400    4.10876510246453
C         1.95367974060626    4.96795206103574    3.00126900244157
C         3.14403736397650    5.64625842113744    2.92189444605586
H         3.24936483009358    6.59373110521516    3.42920799530782
C         4.22883288477660    5.13867737991623    2.19428415168914
H         5.14693400090622    5.70667222857764    2.14837241214113
C         4.12244345124804    3.94169176347517    1.54549356218552
H         4.94918152714668    3.54602658428323    0.97187116042316
C         2.92758737376214    3.19545034820065    1.61778728566670
C         2.80768060161285    1.94620356817342    0.97369297272411
H         3.64774183996079    1.57985586230673    0.39961056427258
C         1.65937351177787    1.21365392015782    1.06965155190153
H         1.57490855296232    0.25757754007572    0.57258662669656
C         0.57848034785757    1.70474528793902    1.81575243867728
H        -0.32577676943197    1.11744944587580    1.89010206359377
C         0.65577492248005    2.91934107587592    2.43914159402884
H        -0.18344174358805    3.27341059658302    3.01563898057277
C         1.82802001957700    3.70313065024067    2.36232690069270
C         1.28826198927733    3.97831546888465    8.97320150880270
C         1.77886621122831    4.80768196255168   10.15275982140962
H         1.15737142759277    4.57984381838099   11.02016143802271
H         2.81211856590984    4.53347854539096   10.36905230621516
C         1.63928790443236    6.26252638436867    9.79546056495551
C         0.74972251906239    7.05135856840162   10.47836506570493
H         0.18284640509143    6.63340351111436   11.29843496383180
C         0.54659676600442    8.39463982592595   10.13223643308794
H        -0.15903166449870    8.98561177114587   10.69864667750061
C         1.22212114323091    8.94051600654076    9.07967050078939
H         1.05963178810526    9.96998170761596    8.79178325034918
C         2.14133877817310    8.16612326802525    8.34154950055958
C         2.82976784815005    8.70922494885311    7.23689395990785
H         2.63850516275067    9.73887181172561    6.96578647572125
C         3.71291124157873    7.95278180561300    6.52035528631927
H         4.22985636945328    8.37552145132791    5.66950058246231
C         3.95930230093234    6.62432804524253    6.89269784976315
H         4.66305176055968    6.03591879646704    6.32219239752046
C         3.31310559214469    6.06936892216707    7.96212015110819
H         3.51529843325846    5.04456882036407    8.22535360800533
C         2.37231750877508    6.81198154755966    8.70772996148567
C        -1.76664221678856    1.65411758298466    7.48737264035229
H        -1.85970989807836    2.40042006207045    8.26423646016555
C        -2.83654029059636    0.82753507626284    7.14666773691352
C        -2.62241101467771   -0.08708963303431    6.12290798562870
H        -3.41940283317516   -0.74516270028677    5.80683816533640
C        -1.38831316217158   -0.14589693936587    5.49913745851247
H        -1.22705157068069   -0.84216920653532    4.69210178422408
C        -0.37742384012965    0.71923211871689    5.91048401876030
C         0.95844879248235    0.75935982749567    5.30075343967647
C         1.44003646891913   -0.19774382861707    4.41086497512273
H         0.84048619687377   -1.04898880661039    4.13153959437829
C         2.71453154687604   -0.05328533089327    3.89227977157236
H         3.10306455441252   -0.78769299290941    3.20163972115904
C         3.49302305623169    1.03751836850787    4.25938605168202
C         2.92612500593586    1.94270503852265    5.15442334654805
H         3.46223362734414    2.82113113019475    5.48387304044730
C        -4.14414287747771    0.94341738340204    7.85751503829418
H        -4.89647497826688    0.30645689893282    7.39984470010595
H        -4.49100393921957    1.97455944036890    7.83697348127655
H        -4.02999930570541    0.65515936679749    8.90174307863856
C         4.88215672252623    1.23250475691768    3.75167173229270
H         5.04963698835779    0.65317165049495    2.84758460273746
H         5.59948492787847    0.90970043536334    4.50639685478966
H         5.06432665515101    2.28400527428459    3.54335593069917

