33
CSD_code = UQUXAG | q = 0 | S = 0 | Stoichiometry = C15H14FeO2S | MND = 8
C         5.17294303035023    6.08662045793016   14.36142379725297
H         4.36732667280577    6.75130984414345   14.09759120594972
C         5.81555325148786    6.02952655058915   15.62891072817905
H         5.56997904709639    6.63596984009506   16.48535477395798
C         6.92320574878219    5.16589242055123   15.51477864577689
H         7.67400090537481    4.99342677355450   16.26835288907811
C         6.96786309207867    4.68621567890820   14.17707136262124
H         7.76924657559400    4.10619697188437   13.74934398249864
C         5.91135883418425    5.28960313025358   13.46272353775950
H         5.72860966464693    5.19896058902765   12.40447367015918
C         5.49857582921105    2.50132638732391   16.02415965536455
C         3.64226899462496    3.98882986405969   16.21567977226244
C         3.97885994067407    2.84039055133139   13.89056149181183
H         3.17665745039334    2.23504242912886   14.31885272397637
H         3.51329725770614    3.58411383134252   13.23517838478780
C         4.87949401058247    1.94369695357923   13.08005710548125
H         5.25706958818214    1.11111666745131   13.67204513849859
H         5.70318416297780    2.48903579553526   12.61989461724624
C         4.95842300197828   -0.04535217314250   11.03625884906843
C         6.30269039606281   -0.17248233628184   11.35804210572200
H         6.77559387369092    0.50532833000903   12.05112039453463
C         7.05338320007315   -1.18311568192227   10.78190726851774
H         8.09802002013909   -1.27672595140214   11.04149059724813
C         6.48049027598371   -2.06344631511444    9.88186286448741
H         7.07345343086759   -2.84865233085207    9.43785288662952
C         5.13995641509646   -1.92922824491963    9.55383168325006
H         4.68272602839705   -2.61029457442855    8.85128414175254
C         4.38137275101212   -0.92908906525430   10.12670118425605
H         3.33601543408763   -0.81840821572018    9.88088424164191
Fe        5.05403207563147    3.96682249901385   15.19517355557859
O         5.73842124941948    1.54678532069217   16.61189542070193
O         2.74100399364784    3.94794843451889   16.92075186021831
S         3.89742379715404    1.20303556811544   11.69768946373300

