93
CSD_code = URAFOK | q = 0 | S = 0 | Stoichiometry = C41H46AuBN3P | MND = 2
Au        3.05706688528623    6.02874642332808    3.44990871878064
B         3.25306664041658    4.33961074362976    4.54677235606721
C         4.18589141299757    2.44391514935716    5.42583515231281
C         1.08387849153117    3.84214410730552    5.88983978601816
C         0.50943476570027    2.94278047381790    6.79188413969927
H         1.09828853382801    2.10191790723586    7.12159621682917
C        -0.77975400117068    3.12815733230220    7.24744463418379
H        -1.20475929145714    2.42017093129641    7.94489982423206
C        -1.52886691508963    4.21065102195267    6.81749937503151
H        -2.53807557459621    4.35477642041986    7.17417086666205
C        -0.96717283211389    5.10741759590392    5.92438788788246
H        -1.53964266187074    5.95799959264492    5.58147719848084
C         0.32251137847318    4.93046462096027    5.46300389605949
H         0.75235263672346    5.63721804581467    4.76908726235436
C         5.10031929315722    1.30522835210997    5.79907640589553
C         4.35677971888784    0.40193359503580    6.78900666853584
H         4.07857498026322    0.96276043327715    7.67637388592794
H         4.99197678652226   -0.43203951424189    7.08093915995867
H         3.44851022244345    0.01411268283197    6.33732427539624
C         6.37628475324767    1.82688364370369    6.46681693113795
H         6.98258827681316    2.38186394856186    5.75574747217471
H         6.96478087619331    0.98900096591914    6.83658854679058
H         6.13105225481794    2.47200372975458    7.30766510537897
C         5.48185723844894    0.47959288616367    4.56662499404685
H         4.59100137246560    0.15096915458126    4.03581768441711
H         6.04188396133156   -0.40130035743638    4.87574519113977
H         6.10561957447070    1.06053739708318    3.89232416380155
C         5.62724442585052    3.71755381486636    3.84143052943224
C         6.65014851089357    4.50850704665707    4.38892087558099
C         6.46233221566501    5.24718392974261    5.69549349584697
H         5.60293458981322    4.81818677172081    6.21899662524616
C         6.15066612758040    6.71614001896628    5.38849403678448
H         6.96496173409359    7.16929863229655    4.82603876922399
H         6.01323494262724    7.27152410286247    6.31358542933602
H         5.23790556324314    6.79579762595218    4.79722245792886
C         7.67991156274860    5.17227129414161    6.61978606298344
H         8.02373367656266    4.14915418484420    6.74506250482579
H         7.41775818552017    5.56760490872755    7.59897287409366
H         8.50349272889639    5.76678369907550    6.23137306142667
C         7.82687498530662    4.67275659763096    3.67181315919377
H         8.62653824240134    5.26590200036258    4.08814528448857
C         7.98982168807823    4.09411518769009    2.42806573041737
H         8.92163358777541    4.20952332568689    1.89232327544504
C         6.94693059617486    3.39016875140215    1.85827424568805
H         7.06232449341687    2.98750591660263    0.86385043765665
C         5.75613717023951    3.19519436685576    2.54419032132566
C         4.60338247598728    2.49613972559981    1.85638820163808
H         3.86743048166497    2.20972056197146    2.61339654386299
C         5.02489221346520    1.23947428501062    1.09081755363339
H         5.58022908567806    1.49701268379731    0.19188866621036
H         4.13988501191957    0.68433959198332    0.78672626602710
H         5.64373533246724    0.58877263245970    1.70282100553765
C         3.93299935497698    3.47701352486190    0.88809613182096
H         3.53850634709888    4.33723847408691    1.42958192070794
H         3.10831210535222    2.99363838580722    0.36870996660171
H         4.64639314857477    3.83450719063013    0.14740253536163
C         4.86173288745510    8.12587965270430    1.27808768398399
C         5.79052709331542    7.11305314326874    1.50465610242457
H         5.46647047043605    6.17067387461463    1.92720869217308
C         7.12352717075265    7.31104445407165    1.19910221568605
H         7.83241649411840    6.51754589509040    1.37935166967879
C         7.54255017047609    8.52180907970884    0.67240876415366
H         8.58477034611193    8.67808598088189    0.43597957822627
C         6.62289970018307    9.53385728387556    0.44957231788797
H         6.94675152606065   10.47830251744474    0.03667404736831
C         5.28656091562108    9.34103365135629    0.74884138097189
H         4.57340146346786   10.13292637758758    0.56796113669474
C         2.55432876917785    6.88471687871586    0.21866219350432
C         3.22835909098483    6.90931758686025   -0.99625440968789
H         4.14392900324680    7.47594149040246   -1.09618565866644
C         2.72473609077865    6.20475788576240   -2.07533173037299
H         3.25016342926682    6.22432863219662   -3.01909365442128
C         1.55250785696147    5.47696407370618   -1.95023618295575
H         1.16563333396587    4.92806189352318   -2.79614353858005
C         0.87849264993013    5.44888644889955   -0.73963923898083
H        -0.03425117610225    4.88023485332472   -0.63902949230120
C         1.38011306445208    6.14626761043240    0.34264878104818
H         0.86844824247826    6.12082350240516    1.29671702049354
C         2.33212223960747    9.39199725741000    1.52468375989811
C         2.67294063697142   10.35157146454199    2.47923833354312
H         3.43005786563538   10.11473489804806    3.21700057410171
C         2.06324314686800   11.58969854897978    2.47124039979999
H         2.34098337666162   12.33342846009906    3.20381125397469
C         1.08805320015749   11.87377331581677    1.52669349356951
H         0.60731917482365   12.84068446290802    1.52113739349824
C         0.72553709702223   10.91418301411700    0.59620394475543
H        -0.03891353592560   11.13340117677760   -0.13522831434327
C         1.33796505998541    9.67341574971263    0.59399495748001
H         1.05238985049447    8.92874925965817   -0.13585250197823
N         2.38357181445792    3.63229479359043    5.44089199099135
N         3.00458630766567    2.51123017058203    5.93314765396421
N         4.43470460855812    3.50155814704240    4.57104003221217
P         3.13147120278737    7.76201999641719    1.70541358156009

