92
CSD_code = URAKUV | q = 0 | S = 0 | Stoichiometry = C38H45O6P2Rh | MND = 6
Rh       12.33732630096417    9.90356032773324   11.30466134268809
P        11.87874597299960    9.97540223601919    9.08638323589378
P        12.74200476347297    9.88702826248909   13.53485143049587
O        13.46556386963357    8.02107331070241   10.97291962881952
O        14.30546915450485   10.86057643725002   11.02125684779340
O        12.77954440901116   15.50398223365580   11.50971961606185
O        10.71308937112365   16.28899392143204   11.88566909339616
O         1.33866713683428   15.14317228957931   13.04247702054209
C         8.16856182123854    9.49682880237212   12.05651360599996
O         0.18769350458505   13.32612040851254   13.67752264098425
C        11.26937763695503   11.56375122123933   11.58918156508708
C        10.31060014390638    7.72806569116014   11.58446520030360
H        11.13264347655900    7.04891037300648   11.39984863859887
C         2.48258094518132   11.70814707278137   13.29071642199944
H         1.56945754165944   11.23625275930186   13.62123935373218
C        11.60400626394540   15.29137345793408   11.69964983651374
C         7.98008140710132    8.11479544351971   12.05018976048046
C        11.79778325889641   12.83843923154902   11.54612741729392
H        12.85024792942273   12.99556758491498   11.34906569025891
C         9.47187040254337    9.99541187781303   11.83879202216018
C        15.40189437137168   10.30074735581336   10.78696464610973
C        10.98560686228811   13.95616298654484   11.75592128134551
C        16.60870715177892   11.21337519757225   10.63762461600464
H        17.05225799840650   11.08920229110926    9.65192690212211
H        16.30217936370695   12.24857804874047   10.76590723462741
H        17.36190511344947   10.96466633096374   11.38255190843175
C         7.18105206810452    5.92183610224169   12.52044494477835
H         6.48072552883283    5.17605987034733   12.14712938966714
H         7.29471274225312    5.77097462395536   13.59532914558839
C         5.97684935236379   10.86280512408907   12.45565165560101
C         4.80153112433114   11.60858016804754   12.66193446784048
C         8.55767312812146    5.82173438869047   11.84360304153188
H         9.23934261995684    5.15980666831179   12.37835789619812
H         8.46322424297987    5.44706722723478   10.81989314719721
C        15.64439002732794    8.92837572942524   10.64625578030231
H        16.66279854932254    8.63058221278138   10.44311088222608
C        14.69436930787212    7.90686455627794   10.74379235075230
C         9.08872604764959   12.51052113615616   12.05857096920479
H         8.03864352538476   12.38260917348358   12.26555300663175
C         1.22055127607154   13.82732786441593   13.30028610594714
C         6.70090551476905    7.35834849696937   12.25655666177003
H         6.10759570897865    7.75997547961342   13.07868132031355
H         6.08873002188359    7.41033243414624   11.35104999468360
C         3.62952310678568   10.97443758510795   13.08901655745309
H         3.63701924743362    9.90755780869710   13.25822916074206
C         9.03550014995045    7.24512849707863   11.81816001461119
C         9.62705461444490   13.77943726951372   12.01756875702156
H         9.00334869963376   14.64316839222088   12.18847110946142
C         9.89201471844564   11.39064637383813   11.83897919728329
C         4.79351430235147   12.99102704398380   12.44084178866926
H         5.69843971046622   13.47845350281447   12.10792727607599
C         2.47690922511419   13.08634419158761   13.07005623769655
C         7.03410786412606   10.30165965520736   12.27197371405439
C        10.53134269104341    9.09958731515205   11.59693470336288
C         3.64330886732072   13.72100785859809   12.64252684904744
H         3.63526914673147   14.78622483942704   12.47223399804500
C        10.44812620760801   10.95820527353007    8.49999894965126
H         9.54265450835521   10.60027533128731    8.98588273566451
H        10.59482556262392   12.00218644744771    8.76907085944125
H        10.34489958375925   10.86730890027290    7.41957036599916
C        11.54310233620999    8.35868162076537    8.29267232569789
H        12.36103373372775    7.67790897310109    8.51971860532104
H        10.62467324372736    7.94840535597764    8.70829704445235
H        11.44381009225206    8.47269345955162    7.21373496995643
C        11.24529260843927   17.60074637055298   11.84442468151111
H        11.69957655314403   17.79751018081648   10.87048608644804
H        10.41052320472827   18.27514031190525   12.01909173107058
H        12.00844419148534   17.72718987159608   12.61592603064189
C         0.16744452019266   15.91602002667324   13.24301179260879
H         0.41749212982090   16.93161537123652   12.94651915062163
H        -0.65284044012577   15.52852877918517   12.63474428268367
H        -0.13266603572588   15.88619520836092   14.29288763525469
C        13.85241984820851    8.55718946590482   14.13551763877570
H        13.42202187944197    7.59286365540487   13.87094059740881
H        14.81819199026251    8.65271967334811   13.64135836891040
H        13.98310239630848    8.62147291270683   15.21549179168293
C        11.33637997163424    9.72844236233217   14.69991011419937
H        10.63626457137081   10.54294992837188   14.52487987511383
H        10.82248828716529    8.78586904099648   14.52240796239634
H        11.69210565891149    9.76618966579126   15.72860870758655
C        15.21607242584942    6.49065104651571   10.54885813156085
H        15.97489924478439    6.26541181389516   11.29524984515572
H        14.39770947049269    5.78096423109540   10.64392432764333
H        15.66775359922296    6.38961245514031    9.56411535289731
C        13.57648952706793   11.37904861008239   14.18660666018379
H        14.47715737880367   11.56253102687667   13.60430953163096
H        12.91259282618375   12.23354622132914   14.07032054096262
H        13.83319560773253   11.24754985577720   15.23731461840775
C        13.21765408393225   10.63537424574036    8.02434997122519
H        13.46399991320567   11.64130730596967    8.36030090509928
H        14.10093734385500   10.00763960174267    8.13302863974587
H        12.90713267385888   10.65798865576364    6.98000209088407

