71
CSD_code = UREBOK | q = 1 | S = 0 | Stoichiometry = C36H30AuP2S2(1+) | MND = 2
Au        9.54964175678435    9.93504655057835    7.12378740660410
P        10.65088106898405    8.88355514721273    4.50795918045251
P        10.30368377955075   12.20896822787984    8.96377039801975
S        10.42632431884531    7.96390074878875    6.26579594702742
S         8.58499200969468   11.84976054569411    8.01365163100000
C        12.07392952354533   10.01124734194995    4.48174244492733
C        12.33514452569255   10.76962056171450    3.34435685664267
H        11.64835058278739   10.74828749986740    2.51000622195012
C        13.48263786514355   11.53838959310253    3.28976237980686
H        13.69223529651642   12.12578299984088    2.40888365386507
C        14.36988986629976   11.54239759041122    4.35521928868475
H        15.27281588118605   12.13035735686281    4.29916800489839
C        14.11201077911737   10.78031792510894    5.48302272049847
H        14.81128749493495   10.77602989643361    6.30535037534111
C        12.96561582903078   10.00999357527962    5.54679251926517
H        12.75951587476674    9.38687652641335    6.40705128163026
C        11.02092946431318    7.63201060923104    3.25464834101638
C        10.73664618913095    7.87974843539129    1.91459562427985
H        10.24651788022316    8.79869123942041    1.62268701542422
C        11.06533399549233    6.93049261493112    0.96510201220101
H        10.84002043562028    7.11252470569552   -0.07456700583780
C        11.67819283162647    5.74677481092981    1.34744767013218
H        11.93000143938224    5.00855027677522    0.60179602242442
C        11.96361152364094    5.50556630738435    2.68195864694924
H        12.43706505179435    4.58194431899741    2.97712573093269
C        11.63903374976285    6.44802961290937    3.64063053186275
H        11.84551774964780    6.26767892459337    4.68635560659473
C         9.16480835113593    9.76091282348027    3.95671812598491
C         9.08490132418780   11.14885397696739    3.96212553858980
H         9.95238413970089   11.73780672796222    4.22839847452950
C         7.89441506999107   11.75973199521768    3.61245047869009
H         7.82435798302867   12.83680575322684    3.61015950706551
C         6.79312291929815   10.99105177325528    3.26832893328110
H         5.86624639302070   11.47342041315000    2.99949631423438
C         6.87539179580741    9.60682795277081    3.26848547138043
H         6.01591659059035    9.01207362946438    3.00044352686649
C         8.06101729689225    8.98583306219474    3.61511471381229
H         8.14324185108099    7.90641879005555    3.62653325416130
C        10.02395430440713   13.53642336384442   10.16134410645861
C         8.99208225456240   14.44265042613147    9.94596967915359
H         8.33996651236813   14.31961639256569    9.09258338273746
C         8.79974572559868   15.48030527603903   10.83999181653030
H         7.99548853298518   16.18202839650870   10.68136143547748
C         9.63550042745367   15.61485071854320   11.93716798635182
H         9.48106618127890   16.42341226547899   12.63485792887979
C        10.66696990282199   14.71189385795526   12.14684794560148
H        11.31272757648802   14.81698668664472   13.00522412851385
C        10.86859909905472   13.67123893526545   11.25991784535196
H        11.66312580068662   12.95651185903940   11.42658055819396
C        10.92455719131809   10.78364744861207    9.89364439188091
C        12.01247578751114   10.03761634658217    9.45457690973757
H        12.56358398811021   10.35236701462858    8.57843396565947
C        12.38485432817625    8.90562078741429   10.15627030385240
H        13.22998539900370    8.32219347875120    9.82434103227510
C        11.67259521580485    8.51929324603854   11.28134584899655
H        11.96591907929294    7.63339293316034   11.82281685301827
C        10.58563277801575    9.26356947188895   11.71385330521524
H        10.03354462637487    8.95954682209947   12.58962051081340
C        10.20505950959502   10.39729476648028   11.01985198685237
H         9.35544003557713   10.98757239388033   11.33849809536438
C        11.60121017246926   12.83327532074310    7.85700851396526
C        12.88459877694402   13.05798241079384    8.34603049977366
H        13.13310011105920   12.78462260139347    9.36175449647165
C        13.83153293038378   13.64088312241414    7.52470876575351
H        14.82734984620627   13.82139223784144    7.89986862769184
C        13.50000674661147   14.00731501345632    6.22926559253620
H        14.23852989916994   14.47793420903804    5.59903540446718
C        12.21989651856126   13.78886045215640    5.74670656450678
H        11.96209909960617   14.08615831764695    4.74143634374178
C        11.26678582100250   13.20578330264708    6.56106174871156
H        10.25418534310927   13.05127928319561    6.21216858021945

