70
CSD_code = UREKEJ | q = 1 | S = 0 | Stoichiometry = C29H36AuN3P(1+) | MND = 2
Au        6.00405663173436    1.86189247080565    3.19591092427609
C         6.78162390915272    3.73444138286325    2.93132792180266
C         7.46877073357711    4.36790657113482    1.90111753372025
C         7.88993643545971    3.93771605413229    0.54279423115422
H         8.95247067233279    4.17097144621708    0.41581496420730
H         7.34332911889077    4.53270514596199   -0.19747340428900
C         7.67149007284134    2.45602151844764    0.24962133944531
H         6.60926004599197    2.21912921478817    0.33672716206806
H         8.21191276524962    1.85988631209690    0.98803198062718
C         8.15769341761261    2.09370448841162   -1.15252746592639
H         7.61519603709544    2.69063291529358   -1.88845491711958
H         9.21852479082318    2.33668502382271   -1.24325402656343
C         7.95139522255894    0.61499863961429   -1.45216130796390
H         8.29368593715422    0.38109251730037   -2.45653887052988
H         6.89758360187655    0.35461132036351   -1.37820680704368
H         8.51185812342354    0.00241719716808   -0.74893117700044
N         6.71964468236163    4.69316304019937    3.88746749930366
C         6.12886433280089    4.58413838079677    5.19515982898248
H         5.12397124452601    4.16762183083423    5.08733565507293
H         6.06402825447566    5.59839478036666    5.59360544612043
C         6.96413107681826    3.70341893407660    6.12722683501770
H         7.04462532800471    2.70056122628421    5.69867182093730
H         6.43210661436123    3.62324925659417    7.07614009372751
C         8.36256979789634    4.26358556728630    6.37391693450881
H         8.90555749706776    4.33029207950128    5.42821920100898
H         8.28266037262426    5.27211919949003    6.78348501127642
C         9.14412818858697    3.38109156478421    7.33885702234979
H         8.64090147891858    3.32922456492792    8.30115088291661
H        10.14135469668262    3.78205573265757    7.49646033212257
H         9.23787589441316    2.37119426577807    6.94456656865668
N         7.28680655456476    5.81679398753550    3.54308688850817
N         7.74244780479950    5.62504153296789    2.33763666363642
C         8.42144533618490    6.67621798767297    1.64119167187943
H         8.44122555454088    7.55005627859833    2.28882394367514
H         7.89733704026463    6.91623437560902    0.71543114659808
H         9.44228958004719    6.37559109056757    1.40156732556199
P         5.13873499749104   -0.18856066865861    3.64218742178441
C         3.46461318790442   -0.14532268644128    4.33456636018098
C         2.59671790392093    0.83468969965066    3.86115636100284
H         2.94803983832301    1.54219117019728    3.11945255487813
C         1.29905248618944    0.89549055761676    4.33381530081039
H         0.62457989988649    1.65248031831834    3.96315650138033
C         0.86721394683644   -0.01609320135412    5.28449932487113
H        -0.14472062842385    0.03295139157179    5.65596635194932
C         1.73140657374299   -0.98936909029276    5.76116203982202
H         1.39288055402337   -1.69719586577616    6.50249482840693
C         3.02974964343665   -1.05968093520932    5.28961641800211
H         3.70610802577952   -1.81763910499261    5.66054037970626
C         6.09798444667444   -1.07619458442796    4.89913442620434
C         6.25681303224741   -0.43305609344317    6.12614480873149
H         5.78032694808149    0.52682617111018    6.28768551897609
C         6.99863685054564   -1.02762332125165    7.12721778866796
H         7.11501120510729   -0.53306336700720    8.07976357768399
C         7.59386445776541   -2.26097441690332    6.90472142897081
H         8.17496351995740   -2.72570223717360    7.68622084071515
C         7.44502411429844   -2.89635102425219    5.68328558836668
H         7.90929679968008   -3.85581966132773    5.51292790228603
C         6.70066946962886   -2.30756224224066    4.67475042311581
H         6.58437964183885   -2.80388458952757    3.72147607553346
C         5.02786536102443   -1.34325553364733    2.25023168442697
C         3.98072071281582   -2.24818747879978    2.11133986346960
H         3.18112245586594   -2.26918023540288    2.83836930661769
C         3.96966799806380   -3.11830094111708    1.03580638801844
H         3.15769353253075   -3.82085444914518    0.92541459130346
C         4.99546765839788   -3.09074056464790    0.10453093159160
H         4.98202278404356   -3.77332761514204   -0.73113335237005
C         6.03721805167892   -2.18596815051810    0.23969542383973
H         6.83392058717354   -2.16550300769727   -0.48829785830149
C         6.05156578722439   -1.30703215709517    1.30623283199798
H         6.85492931056274   -0.58954397990415    1.42086911464348

