64
CSD_code = UREQEP | q = 0 | S = 0 | Stoichiometry = C24H32N3O4V | MND = 5
C         8.11167193890083    7.49122357102980   14.49399187187764
C         7.88725779245591    7.01151556766810   13.18421486183998
C         8.10605105802091    7.87704239064004   12.12672335250480
H         7.93431881468862    7.51352714064115   11.13030588021118
C         8.54241707783430    9.19573276952164   12.28559480793144
C         8.79186693692431    9.64129182430681   13.56806608008133
H         9.15638101107131   10.64165754676970   13.74715958719883
C         8.59727010178746    8.81096783481271   14.67584237930060
C         8.86531921817482    9.27599064323291   16.00061402072070
H         9.14672419680473   10.32254311034608   16.13812669362712
C         8.99267590537710    8.09019504192863   19.16938537221786
C         9.30849728065301    8.37706523359103   20.56666429915203
C         9.65523145008052    9.66582728188965   21.03269520678684
C         9.97398434129314    9.81513190815136   22.39058782919673
H        10.24512432316261   10.79808476063389   22.74980833315957
C         9.94637520150445    8.74591367706431   23.25498055612076
H        10.19790582525451    8.89215295586694   24.29536531419638
C         9.60020294235839    7.47878435360392   22.79589316523363
H         9.58245362507205    6.64058362608580   23.47502735902217
C         9.28858296593935    7.30653352389514   21.46707338380077
H         9.02906144012809    6.33036067534865   21.08212949782040
C         7.47281341088415    5.55820690348617   12.98574779656957
C         7.23944396747232    5.20663893032023   11.51233164326448
H         8.14638058694516    5.33618168718672   10.92694533817891
H         6.94153157984529    4.16289246993872   11.43684120314674
H         6.44505247822120    5.81378443732839   11.08410485208747
C         6.17125228241342    5.27578161397239   13.74973470162272
H         5.84996248031554    4.25126058082890   13.57096634312776
H         6.31240700796291    5.41010432266624   14.82050205235100
H         5.38360858195403    5.94818825014893   13.41362265656965
C         8.60237890859372    4.66151127489351   13.51887669450101
H         9.51770064514050    4.84410307180026   12.95872085044601
H         8.80478582872549    4.85798992083156   14.57437087645401
H         8.33061908643170    3.61364552239021   13.40172340303647
C         7.85136333983893    3.77250781045590   17.87006742090087
H         7.45763734280671    3.79137338389992   18.90322532286504
H         8.86327162824567    3.32903271065546   17.88311936232813
C         6.92715108785060    2.92775251161679   16.98532997783661
H         6.87769191741805    1.91014864966649   17.36258217639205
H         5.92651181339985    3.35625349119461   16.97830552233560
H         7.31333928039052    2.91736826426173   15.96806798146202
C         8.76491639875957   10.13296162651468   11.10644466886687
C         7.88003468679085   11.37531644039385   11.28147672545462
H         8.12946971451056   11.91498506336867   12.19036577433878
H         8.01074723991247   12.05030374923438   10.43836287704780
H         6.83258804861202   11.08614764121835   11.33321093759132
C        10.24258177158881   10.54724792811976   11.07233876165334
H        10.52685065524225   11.07338932615432   11.97895435848482
H        10.87633181176220    9.66849379404424   10.97670296425381
H        10.42900865611274   11.20271904436745   10.22425730054011
C         8.41861815779897    9.49040364917029    9.76055625455228
H         8.58336960278846   10.21267598392777    8.96354383708020
H         9.04962145728483    8.62718625646262    9.56352735027594
H         7.37463062060317    9.18787541478907    9.72739979907162
N         8.80724158298562    8.51150255049877   17.03990591176465
N         9.05896051991813    9.03253864536169   18.24646176008453
O         8.63382224771253    6.90781902464947   18.83145614574376
O         7.88223482376651    6.77058146184503   15.55893681998012
N         9.63365954752182   10.74657929599665   20.21503101336576
O        10.15142149559990    6.29342835624796   16.72203173638311
O         7.93684101685953    5.05527395027616   17.41201359134996
V         8.66323080493768    6.45726650616416   17.02967083776459
H         9.53679082075046   10.55593463089591   19.22566242630153
H        10.07365161584098   11.59491841572996   20.52645212057288

