71
CSD_code = URIWAU | q = 0 | S = 0 | Stoichiometry = C30H28Cl2N4O6Zn | MND = 4
Zn        0.76257696119776    5.68355379370111    3.28930815939949
Cl        0.26224365405545    7.62242970272269    2.36831615346750
Cl       -0.29122144662788    4.15270742224855    4.47495397487813
N         2.52288983336099    6.05347221570015    4.45424861752091
N         5.91222187716661    9.19104777111603    5.46850501193681
N         1.66111283178731    4.60759756186187    1.66799942122038
N         2.60848075897933    0.31389348289202   -0.07060557792818
O         5.42869002434373    8.75387596897530    3.27053719822843
O         6.33972426589657    9.14688978804978    8.07284089913851
O         7.64086059593252   10.73821121101227    8.93475648444512
O         3.12419044279595    0.76181407328915    2.11782006454058
O         2.13707054342790    0.34026393017540   -2.66774361224519
O         2.14401622349768   -1.61395792768982   -3.73988391720123
C         2.76048752926272    5.33569635904977    5.54790007317666
H         2.06028813034128    4.53610364312543    5.74654661945787
C         3.83314395889034    5.59366874287856    6.38458990326248
H         3.99258186570586    4.98551818236423    7.26060267748790
C         4.69145169802883    6.63758331481316    6.07933162697432
H         5.53793953815080    6.84414455392030    6.71812149755980
C         4.44368320206606    7.38789931585032    4.93223864067047
C         3.34480589600261    7.04636514907694    4.14883186542879
H         3.12187333002182    7.60963213569153    3.25286153946237
C         5.31208957736174    8.51326735388193    4.45310685288134
C         6.76990601343819   10.27767121652107    5.41079442404723
C         7.08721206679629   10.90970289473069    4.20792050545954
H         6.65642100333010   10.53506969667271    3.29456227929344
C         7.93730873937487   11.99614934507153    4.18947716384099
H         8.16909824023131   12.47135628573976    3.24830012468200
C         8.49128003237183   12.48029677284751    5.36685422585418
H         9.15432448446075   13.33128970379402    5.34749111332283
C         8.18943475041892   11.86673415344665    6.56332899797102
H         8.61392670883399   12.23118721953415    7.48516154290125
C         7.33320442893330   10.76377216176314    6.61207209735787
C         7.04543278897602   10.13193228294726    7.91256302150653
C         7.40795708912955   10.18390750035417   10.23082928200030
H         6.32787312752859   10.15612207539872   10.41433482349670
H         7.78101143429604    9.15338921278115   10.24587787031284
C         8.12286876939850   11.04647267875946   11.25270686632881
H         9.18950545322358   11.06686515479049   11.04571476521971
H         7.96160871098417   10.64126667640988   12.24717128196356
H         7.74160452032122   12.06341956330717   11.21721796031827
C         1.84841172059836    5.20315356734633    0.49415219113518
H         1.59358371052118    6.25317943291727    0.45397457684467
C         2.33575346595620    4.52569754998478   -0.61075563726198
H         2.47649710830750    5.04673353841088   -1.54423592088930
C         2.63721717284565    3.17812742682850   -0.49748843330618
H         3.02712120930496    2.63914060995250   -1.34879077089646
C         2.44300492162489    2.55496956519010    0.73299305685217
C         1.95757724256746    3.32219082297113    1.78825644723876
H         1.79245357995962    2.86910119977511    2.75631966308692
C         2.76690180015317    1.11778241813460    1.01524602845312
C         2.79984453676000   -1.05370890795621   -0.18405530379978
C         3.14001327060731   -1.84906551114782    0.91082357641003
H         3.26426254119859   -1.38241376323243    1.87360348281138
C         3.31277983921538   -3.20977432404866    0.76254442719803
H         3.57437773386185   -3.80724990642538    1.62274694445268
C         3.15118366880713   -3.81181725882807   -0.47798045745896
H         3.28637975838368   -4.87652975345253   -0.58874165254944
C         2.81633664361011   -3.04062969402661   -1.56988747941974
H         2.68893434944038   -3.49479029788903   -2.53957808160877
C         2.63605302329008   -1.66039343284804   -1.44967080847357
C         2.28598272000137   -0.87274317045421   -2.64565364120449
C         1.80292138699803   -0.92134353455942   -4.94212668125642
H         0.86733313039292   -0.37396565443844   -4.78103548190617
H         2.58930006638942   -0.19079837022889   -5.16371794941568
C         1.66456272861292   -1.94146459757166   -6.05539208449031
H         2.60079580501652   -2.47558782043492   -6.19323466809058
H         1.40384978456317   -1.43683344203011   -6.98086643992781
H         0.88660996057570   -2.65956846192998   -5.81082781213717
H         2.31168780299784    0.74016317008842   -0.95086474128503
H         5.74098966367774    8.87975626058425    6.42678113136251

