90
CSD_code = UROBOU | q = 0 | S = 0 | Stoichiometry = C40H43N4OScSi | MND = 6
C         7.97483352831868   13.49481271170461    4.99279513904613
C         9.38241156550706   13.38284828165840    4.98383533713018
C        10.16726250505844   13.80934150401236    3.79119128468859
C        10.33846567829181   12.98534677377521    2.66322664975228
C        11.24916942067782   13.42854534387571    1.65849277727761
H        11.44481549449953   12.80165158647058    0.80079402435165
C        11.87837284242945   14.63301299489929    1.73524568170004
H        12.56067626951614   14.93824415577982    0.95252364149679
C        11.65767539535867   15.50494187409858    2.81882889347540
C        12.27875779084045   16.76473230770043    2.89778027852030
H        12.93550184849557   17.06752142204322    2.09298276804062
C        12.05828039204798   17.59203908117100    3.96330806292208
H        12.53707065787044   18.55935371757529    4.01885323143036
C        11.19665700172697   17.18179235204051    4.99224435520370
H        11.01939742905658   17.84452906062575    5.82813556521281
C        10.58143384128454   15.96373571643074    4.94461541647338
H         9.91316471262736   15.66815050221804    5.73944671553087
C        10.79006788369343   15.07580091753574    3.86096292774645
C         7.30755723291507   13.37187364390618    6.25102873141413
H         6.23307760560799   13.50383299367955    6.29853448373364
C         7.98689001678090   13.09526550830931    7.40032416932759
H         7.45475038109962   13.01783368663915    8.34069416733727
C         9.38194368030457   12.89338958252105    7.39371288858801
C        10.09552911140948   12.56777321954537    8.56330399416228
H         9.54668289798695   12.45929893649287    9.49002249243122
C        11.45085248197481   12.39132988297472    8.53418703695458
H        11.99185580080894   12.14197806491187    9.43566095542174
C        12.14730345031223   12.53975550710679    7.32320345209825
H        13.21895312533392   12.39857001320735    7.31134745363066
C        11.48599040917985   12.85983990372381    6.17305250442998
H        12.02583990598513   12.97313389230276    5.24439691686106
C        10.08143756207330   13.04651177836708    6.16122504038444
C         6.00360709762746   14.27868264895722    3.87873354881469
H         5.84647716752207   14.90127196199461    2.98551279174999
H         5.84355072741274   14.93007670371449    4.75315423110191
C         4.93768506422935   13.21349117909938    3.83929937213238
C         3.61250650945520   13.51846058098325    4.15295995629221
H         3.35981620517687   14.51691707255434    4.47631882275838
C         2.64478808208855   12.54146987254102    4.04146226095949
H         1.61325458833567   12.75152536779021    4.28253893041782
C         3.03008411310357   11.27997504787826    3.60527786976427
H         2.30977348199968   10.48539585283196    3.49073268105326
C         4.36410792796052   11.06505274900712    3.32033345090678
H         4.69513702383693   10.09419732367070    2.97358205107805
C        10.11294130751623   10.84841543866557    1.60826339371595
H        11.16844450234098   10.56036609480165    1.76200492797869
H        10.03723031206661   11.26153797848530    0.58180300929578
C         9.26902588537099    9.60808302477727    1.59857759044524
C         9.79610094040187    8.39633293343235    1.15007136735250
H        10.82935138936397    8.34507779792630    0.84177141720535
C         8.99022471411397    7.27661221079613    1.10767025830685
H         9.37757189108745    6.32778820640481    0.76722735669302
C         7.66799816927919    7.39939508473218    1.51662509026090
H         6.99853011928689    6.55381512911746    1.50150064862053
C         7.23016057708838    8.63749238081824    1.94630059849584
H         6.20489423314728    8.76721745206265    2.26949551873839
C         6.92872690055870   12.34290369051692    0.65104324099909
H         7.66400779332167   11.82290919996812    0.01727350769916
H         5.98051457103604   11.79841299385648    0.51010850639403
C         8.05342049042649   15.25025445169216    0.78178593594461
H         8.15214101251938   15.05707967280876    1.84898733959057
H         7.81888128280012   16.30218345576546    0.64555346751764
H         9.02855440897107   15.07745854364435    0.33568259753486
C         6.92822299509384   14.27371348465729   -1.90371175977462
H         7.91705062844381   13.95967093838459   -2.22426797493921
H         6.79294392998756   15.30146765786592   -2.22711340638631
H         6.20382336097462   13.66457573854758   -2.43676533565776
C         4.96248115067265   14.74968207633417    0.39086255909483
H         4.33986420763007   14.73983648291162   -0.49832554560357
H         4.97860852322783   15.77010364169797    0.76110627408303
H         4.46946857973418   14.13277517629964    1.13774248569318
C         8.99843752784249    9.89601461122830    5.02948806608642
H         9.78290048271735   10.61095887752354    4.76990992880846
H         9.12983885862688    8.97328885232759    4.44279196652324
C         8.92330668090625    9.57072046665971    6.51461875582924
H         9.62158790892596    8.78878236094273    6.80278324562460
H         9.12229595022764   10.46448523420810    7.10462480634618
C         7.46307224809826    9.15131678519768    6.65010783863353
H         7.33564690215214    8.11247202845622    6.34073210942338
H         7.07939038707066    9.26512526561982    7.66093945303920
C         6.76869756040368   10.09422317065009    5.66571627239254
H         5.92317697138955    9.61267898740368    5.16123618257711
H         6.40991782086949   10.99666209212083    6.17473498955570
N         7.35335990188950   13.77696884479128    3.81313238023285
N         9.68293402765015   11.78741876106684    2.61664720930093
N         5.31040692128130   11.99503329306742    3.43822527404089
N         7.99798416079969    9.72256907171715    1.99383582702028
O         7.73895765401855   10.49082848652372    4.69039118469775
Si        6.73607987195859   14.09857846178068    0.00457782448025
Sc        7.64335837882482   12.00911013345528    2.77817061232511

