31
CSD_code = UROFEN | q = 0 | S = 0 | Stoichiometry = C8H17OReS4 | MND = 5
Re        2.51854345590464    0.86501561672729    2.02768390641719
S         0.95164324702221   -0.22506967296457    0.70769432659666
S         4.17736221388901    2.53399592061755    3.20348803194189
S         1.25350956372731    2.76956945137042    1.76589245436503
S         4.13762671359741    0.66499838028852    0.40445347614666
O         2.55321468525354   -0.11875366267357    3.37570876420404
C         2.18851086335592   -2.64183409824863    1.16157347870796
C         1.79515148551303   -1.69862528052887    0.04150651255372
C         5.56528814118180    1.61708652100423    1.03511032217904
C         5.12568929160354    2.91658603357385    1.67597842218229
C         3.13263332194981    4.02704224661123    3.37024783132432
C         1.63507349670968    3.72659733458980    3.30456440643547
C         0.86031136247991    5.03941531399431    3.21620876471143
C         1.18510623451633    2.91346773299989    4.51322398197980
H         2.76750541955232   -3.47445663533218    0.76864523156647
H         2.79013559740697   -2.10601832215650    1.89991055897652
H         1.30245829066262   -3.02646242624573    1.65986195252422
H         2.66288932371984   -1.35823375198008   -0.52271049058852
H         1.07611820284324   -2.15583464091363   -0.63760950445821
H         6.10385990657753    0.98882938095115    1.74646876667586
H         6.20161842970595    1.81049308124061    0.17015832477355
H         5.98400198090824    3.52440198222446    1.96745220233948
H         4.47897155726332    3.47953415406113    0.99904505258762
H         0.12447722261119    2.68793372782235    4.43298432836569
H         1.35726442574270    3.47399877604197    5.43099882373784
H         1.72552141357213    1.96554176187949    4.57051811484417
H         1.04969053105136    5.65083166218951    4.09663266731986
H        -0.20477207612519    4.83140212723933    3.15706038550292
H         1.14715857605008    5.60026772214803    2.32897904030593
H         3.38409785146550    4.45703160562172    4.34092385365357
H         3.42493927029001    4.72054795784926    2.58264601212332

