31
CSD_code = UROFIR | q = 0 | S = 0 | Stoichiometry = C8H17OReS4 | MND = 5
Re        0.65062624799913    2.05386704556778    1.77530689786608
O         0.57512618466160    3.43405640159521    2.71118122107607
S         2.16998095631696    0.77180316099935    2.97116978061319
S        -0.94094554427383    3.16546105785156    0.00220658989876
S         2.00023916531677    1.73971035566462   -0.06079431005277
S        -0.97368809944725    0.43315964738507    1.96156451679002
C         0.84295449200492    1.30574799280076    5.32322025531641
C         1.26614724175719    0.15547903356174    4.43079380160983
C        -2.36713679371125    1.03128285104233    0.94056288577534
C        -1.88390490139963    1.63027419022460   -0.36325712169923
C         0.16149979053903    3.27459631926509   -1.45427599284801
C         1.64586875139502    3.23699645834687   -1.09134601212684
C         2.05124147882437    4.48009273070867   -0.30753962990638
C         2.47472663606580    3.10636485654539   -2.36704245694381
H        -2.92714006518492    1.76163121757858    1.52675130135031
H        -2.99631175878937    0.15984057753044    0.75355451817936
H        -2.72118618741516    1.90649314618079   -1.00647418948761
H        -1.22339286435069    0.93349403144007   -0.88434999073349
H        -0.08051964767890    4.22100949723203   -1.93883224090425
H        -0.09493845982269    2.45300124994641   -2.12136157838370
H         3.53083798497375    3.06670263950274   -2.11397456890650
H         2.30260935532857    3.96035713587084   -3.01955511047532
H         2.21917142153344    2.19518240435316   -2.90393432982049
H         3.10224040812983    4.41944961635093   -0.03616698700102
H         1.89421315942508    5.37406695650309   -0.90915129953235
H         1.47193825978210    4.56780192516898    0.61465878621891
H         1.96258481581174   -0.51252288251422    4.93641800176838
H         0.40908931895185   -0.41504397768887    4.07455578090752
H         0.22704137145397    0.94190844774258    6.14242808957830
H         1.71602591692508    1.80944367041846    5.72941579835038
H         0.26990136487710    2.03139224282650    4.74086759352197

