24
CSD_code = UROFAJ | q = 0 | S = 0 | Stoichiometry = C6H12IOReS3 | MND = 5
Re        2.99637227450971    2.04938888192481   10.24424123921564
O         2.48933555895438    3.59088780495028    9.88365677419347
I         0.65562241714858    0.83916091804959   10.12177528533107
S         5.33119283268977    2.76840740623769   10.44323829668039
S         3.79345385875286    0.60538768470474    8.64116905376766
S         3.20380643080266    1.30603601385629   12.40400785650994
C         4.75489837340383    2.05981379307307   13.00889818186657
C         5.85581210816019    1.91628375694014   11.98223455141657
C         6.21372318866881    1.79720909308331    9.16552374165615
C         5.29649437294819    1.46546286999500    7.99316718713257
C         5.99259236869671    0.49451421179385    7.04411701068669
C         4.85426575556935    2.72771400714311    7.26155381706071
H         4.17877832398756    2.46793017924940    6.44994861830040
H         4.32315508949922    3.40521823521176    7.93480285720878
H         5.71619640941370    3.24827025626133    6.84677951834507
H         5.31795965050249    0.22860717941342    6.23424313438520
H         6.88378717872711    0.95323889358060    6.61977464542783
H         6.27873580120102   -0.41902155771034    7.56185257469121
H         6.78107184971971    2.39149464459764   12.31118867425049
H         6.03486662942202    0.86368716714902   11.75413676968214
H         5.01101205121543    1.53659432174685   13.93134849479181
H         4.55275323526509    3.10846089942715   13.23394987899852
H         7.05176571794088    2.41467474537626    8.83844347102628
H         6.59084852280092    0.88617859394491    9.63104836737448

