103
CSD_code = UROGAK | q = 0 | S = 0 | Stoichiometry = C50H42ClN4O5Rh | MND = 6
C         6.56347563049326    8.59036930776779   32.74054832557956
C         7.98958167821978    8.58793395769933   32.57346017699701
H         8.49725064580659    8.48114356513732   31.63507718925507
C         8.52949247715406    8.74520276209118   33.80281529610320
H         9.56663257127304    8.77190566448009   34.07342821628844
C         7.43647059385348    8.85934337829292   34.72668354782152
C         7.59594359411005    9.01148547321663   36.10230284488610
C         6.53610740747907    9.08329292596353   37.00449144055746
C         6.69827294044361    9.26932961066719   38.41807171464895
H         7.64047293147749    9.37730114533963   38.91836549424575
C         5.45773010739522    9.29291886118628   38.95659174673703
H         5.18284477644202    9.42600390917537   39.98442775996083
C         4.53015944166271    9.12618691639535   37.87463996392405
C         3.14475790226592    9.13188375490030   38.03368356713450
C         2.23845005656927    9.04730575958160   36.97837173917852
C         0.81352696794623    9.04995632635032   37.14333604335484
H         0.30516104491443    9.11538664278115   38.08500544020203
C         0.27432257316283    8.94571066386421   35.90711794025698
H        -0.76286647746343    8.92836469123046   35.63599153482182
C         1.36632602140903    8.85666202384010   34.98080431267120
C         1.20945339590184    8.70412685489115   33.60423921205153
C         2.26990188979686    8.60408830797288   32.70556505638510
C         2.10546421719213    8.36174931241391   31.30060469343811
H         1.16181765295623    8.24525551324139   30.80495251167404
C         3.34598966765415    8.28350307351342   30.76793915240852
H         3.61867688233470    8.08903592280130   29.74946726902184
C         4.27590549862890    8.48153194344951   31.84291951788037
C         5.66004855916170    8.44946304979822   31.68904675451437
C         8.96997020670890    9.08164941251184   36.64259255223880
C         9.81194464904165   10.13670546687537   36.31891883737551
H         9.45409763032287   10.92129034507326   35.66748341835661
C        11.09889394628147   10.20960695798324   36.82477499851752
H        11.72002332371511   11.04917866126456   36.55414311053169
C        11.57013463084680    9.20952907902208   37.66747202676908
C        10.72855552578421    8.14402341687567   37.99345380491722
H        11.10895030907760    7.37286283617939   38.64449490669413
C         9.44786942460575    8.08452921496641   37.49113554545425
H         8.80677139399125    7.25273413159221   37.74151301883116
C        13.71598462410134   10.20935565829847   37.91749180838126
H        13.92688267449998   10.25828114367372   36.84410341025949
H        14.63320195756356    9.96851750907276   38.45266160727675
H        13.34359984436413   11.18089395188412   38.25926578981354
C         2.60824635659099    9.23436721780045   39.40733581688056
C         2.83392853542487    8.21955761717744   40.32768581822593
H         3.39721081767990    7.34932554538203   40.02500720095745
C         2.33707602413127    8.29739440421892   41.61704485342988
H         2.52742650261266    7.48444423092048   42.29992043104821
C         1.60408614199957    9.41083243141776   42.01256787471235
C         1.37875201258391   10.43655933925955   41.09290053649389
H         0.81197682953689   11.29642964806152   41.41369926337713
C         1.87091179897666   10.34609779806989   39.80943472293045
H         1.69289438605255   11.14987905364924   39.10951568788363
C         1.26354538056802    8.59975633405645   44.22425449134141
H         0.81955193241853    7.64733868395596   43.91672827780227
H         0.75858749438970    8.95871705082034   45.11973935847593
H         2.32590462816272    8.45133893521265   44.44395453942316
C        -0.16441856119211    8.60367082296571   33.06767982976451
C        -0.98163866590853    7.53552139347695   33.41306722792921
H        -0.59930517807881    6.77090114560496   34.07294055840580
C        -2.26729427344230    7.42509014498363   32.91264380714293
H        -2.86753811262138    6.57574390328404   33.19867202967905
C        -2.76406725237517    8.39855872416357   32.05299771952502
C        -1.94744067473902    9.47535674207296   31.70326239548528
H        -2.34515175408225   10.22395056765581   31.03617589841183
C        -0.66638218967697    9.57171061722746   32.20045701947011
H        -0.04495773492976   10.41073629255762   31.92238407368560
C        -4.88106502044144    7.33667524560672   31.81590755182689
H        -4.47699297938893    6.37415730183584   31.48566865580105
H        -5.80340304846585    7.54339714422146   31.27527759834781
H        -5.09392414883313    7.29248122079140   32.88905195647407
C         6.20332794572472    8.24294177245897   30.33024015456691
C         5.99297443960084    9.18191787848403   29.32963297070220
H         5.43105066409740   10.07755583938985   29.55255752812745
C         6.50221442176921    8.99995635738710   28.05500685118732
H         6.32255472383970    9.75667860361246   27.30731540256715
C         7.23258901636863    7.85522189425549   27.75752293118084
C         7.44286792864058    6.90488397933569   28.75878413717451
H         8.00707954562736    6.01922891931303   28.51255416793619
C         6.93893532810890    7.09893472635673   30.02559441928397
H         7.09962195319345    6.35507307586567   30.79145678023796
C         7.59367421323334    8.48268951781670   25.48983111214130
H         6.53302736177981    8.61373946009945   25.25108542450680
H         8.10397555799559    8.05043867453590   24.63049977179318
H         8.03727017997474    9.45714807957149   25.72003136069522
C         4.87056838066750   12.13338998979607   35.39576568320926
H         5.10809338052112   13.05120433703869   34.83881782288243
H         5.79327487574015   11.73255646172056   35.82092880635073
C         3.85921930471085   12.42980495163316   36.49207843533374
H         2.94653459603229   12.84926906528663   36.06951579005543
H         4.27483838520727   13.14356532594671   37.19766811961901
H         3.61068453826511   11.51597928774129   37.02723627257595
Cl        4.39610603847028    6.62540978422953   35.07721302111629
N         6.25612172347379    8.76936311155973   34.05401461535804
N         5.21015989600741    9.02782358214221   36.69851165530030
N         2.54781332502174    8.94542476966655   35.65459310716707
N         3.59693014509952    8.67252358077670   33.00790018688176
O         4.40709895854014   11.15701801258763   34.47483804715435
H         3.52014156306595   11.40991731869020   34.18360602234669
O        12.81489248560549    9.17371693878795   38.22095805655244
O         1.07082859000151    9.59807827188461   43.25250930197537
O         7.77814219518783    7.56850012878877   26.54190662770298
O        -4.01136112876735    8.39711189346666   31.50422871745304
Rh        4.40647943109117    8.82904575001446   34.85506820651209

