65
CSD_code = UROGIS | q = 0 | S = 0 | Stoichiometry = C24H34F3NP2Pd | MND = 4
C         3.75512927287264    0.18993029560493    3.93527927857790
C         2.88621708132297   -0.90323907847222    3.69417654186995
C         2.97509420729439   -2.07003399351011    4.43730012320726
H         2.31544500454796   -2.90391122577032    4.25314195133445
C         3.91640838115531   -2.15573761181159    5.44261577734514
C         4.73484263436156   -1.08238200835768    5.75653725293880
H         5.41968792110844   -1.15952500588782    6.58648966106974
C         4.65111133319529    0.07549340362792    5.01616929043049
H         5.25483118623966    0.92476579247600    5.29754086260422
C         4.62588816466091    2.22707336862081    3.00617905957933
C         4.28864187443139    3.54722472537922    2.61684492748927
C         5.26450658953426    4.51484137938372    2.43549841021749
H         5.00889673835075    5.52115918616463    2.14150188218141
C         6.58925599552973    4.17510440240708    2.61927906992880
C         6.96398275692086    2.87719775127091    2.92819695638318
H         8.01096621345174    2.62923649720448    3.00641286552342
C         5.99548600954043    1.91622439257224    3.11393184891972
H         6.29509832203778    0.89696824445027    3.30433859321860
C         0.03429363929159   -1.16936046173831    3.24352926440036
H         0.16432792908561   -2.16367598682943    3.68581753670155
C        -0.24269831817327   -0.13496705656604    4.33725408264732
H        -0.31538302387512    0.86100004593253    3.87782929069445
H         0.56276872475359   -0.12638228384144    5.07475341248460
H        -1.17961013538124   -0.34751819320982    4.84895242733722
C        -1.08393838076536   -1.18081372547722    2.20732812104795
H        -2.04705408136838   -1.33189347626530    2.69168133523489
H        -0.94114414169901   -1.97605192442057    1.47829820181724
H        -1.10758382837016   -0.22397937806727    1.68581848139402
C         2.00138666473836   -1.57962626162083    0.95482127621496
H         1.11301634757225   -1.52636616888578    0.31294286408274
C         2.34892298260226   -3.03378992866039    1.24197728895069
H         2.55192165980418   -3.56013099561154    0.31053320779875
H         1.52628545987686   -3.53917748552868    1.74453054652944
H         3.23524418035399   -3.09875469920032    1.87020553056231
C         3.14532212434630   -0.82698954182403    0.27010076275307
H         4.04696887693370   -0.86931077609050    0.88318613256937
H         2.86576400641103    0.23000368972842    0.13043248852090
H         3.37016951920269   -1.25870719036544   -0.70356784913742
C         2.51102473845922    4.68274575533097    0.62927011163530
H         3.21638597451587    5.52157338190061    0.63047148666053
C         2.95290850821550    3.62013218874968   -0.37994055971000
H         2.26420602340030    2.76518243073633   -0.32417067912228
H         3.96492892401369    3.27400136176819   -0.15926034278348
H         2.93385647405545    4.01216693154636   -1.39512649627276
C         1.09666697209026    5.16603340321003    0.32887644859681
H         1.02572333876903    5.51204472836034   -0.70080445907362
H         0.81021504811185    5.98636230104688    0.98406649561520
H         0.39387913305450    4.34404827865608    0.46483581663894
C         1.81744849600985    4.85063175874832    3.58998365270230
H         0.82115873267301    5.14787605182027    3.23903128966133
C         1.65389534404417    3.91473943293655    4.79047929751496
H         2.63080019499377    3.60802448684568    5.16756387380128
H         1.09630569038649    3.01342832334675    4.48775492891914
H         1.11149742414827    4.40456267251903    5.59727055606171
C         2.64206744840050    6.08668905994554    3.92152445068205
H         2.14940782121657    6.66626077537462    4.70078211910094
H         2.75754133237978    6.72404198669873    3.04681326550642
H         3.62959175067510    5.80322340058679    4.28055735296060
F         0.12070115846598    1.97197340457575    1.33050803456999
F         4.01127709317859   -3.29951628545437    6.16550510850009
F         7.54535339575601    5.12230596893066    2.45065262907289
N         3.62439776507297    1.31444654276563    3.17263315462389
P         1.60044255724580   -0.57129476359563    2.46125354465382
P         2.53078150620379    3.78568014169034    2.24703702896459
Pd        1.85446726105891    1.64703756358575    2.24157313530605

