49
CSD_code = UROHEQ | q = 1 | S = 0 | Stoichiometry = C22H20AuN3O2P(1+) | MND = 2
Au       -0.55823233661018    4.03857577524932    1.92867051903507
P        -1.42053990545318    5.99819092308120    2.62687432671545
O         2.08986435290003    1.02114177108608    4.04509236724912
O         0.96697307224380    2.95410296059492    3.82620505261566
N         0.77813132722242    0.50161689102658    0.10808914138606
N         0.09355845387197    1.62628158120682    0.08862238166117
N         0.23902984232280    2.19489353350361    1.22335847167296
C        -2.53221833595438    5.81970225161633    4.04563935745348
C        -3.58182938888887    4.91412514056607    3.90522727779965
H        -3.68734010392635    4.36663228433766    2.97659161622603
C        -4.47521094453891    4.72904392450728    4.94186062009735
H        -5.29221714834286    4.03246243516120    4.83291457656231
C        -4.31805944110936    5.43778357773996    6.12378590757970
H        -5.01428317160229    5.29053893007633    6.93504167010990
C        -3.26944395019094    6.33061003482722    6.26723301708155
H        -3.14900786109243    6.87911556342399    7.18890921241659
C        -2.37201968841451    6.52649246800013    5.23105251170390
H        -1.55364935573988    7.22374065380889    5.34112192845710
C        -0.14159559778740    7.15642319082838    3.17190862924982
C         0.90855238947951    6.62294550238713    3.91761006830332
H         0.92412301249899    5.56052542195022    4.12634401317398
C         1.91049212022828    7.45407232630892    4.38079817609273
H         2.72239587391053    7.04731339498148    4.96449419435149
C         1.87456163904525    8.81038932869441    4.09193126062439
H         2.66058673046792    9.45725400450608    4.45033432749057
C         0.83641652450139    9.33703525752255    3.34086419369809
H         0.81498061038489   10.39175109242654    3.11276590382371
C        -0.17617959309115    8.51462801561556    2.87738356303470
H        -0.98490889953864    8.92273382147736    2.28758970391719
C        -2.40970034405871    6.88340780639164    1.39845802692520
C        -2.13866827117866    6.67376243103767    0.05007600951344
H        -1.36382911341074    5.97145350514635   -0.23212788729603
C        -2.85986164833358    7.35783956187396   -0.91115807853896
H        -2.65030142764744    7.19762072827565   -1.95771491744131
C        -3.85351663621871    8.24536620064252   -0.52884665680397
H        -4.41896199189535    8.77539925892482   -1.27971023111021
C        -4.12858062919230    8.45053683117452    0.81443215203378
H        -4.90559938321436    9.13974411514966    1.10822599429021
C        -3.41017497715752    7.77288138051124    1.78236463265367
H        -3.62278738411995    7.92566060637459    2.83180128810024
C         1.39099592845994    0.32457483197652    1.29248264030364
H         2.00267101866574   -0.51724792781362    1.53828530891314
C         1.03308734291419    1.44238079955110    2.02222915426171
C         1.35532169768362    1.89352200338460    3.38990775265217
C         2.45313609543403    1.36087846079691    5.38438173789122
H         3.14797190667576    2.20167187309841    5.38167506409504
H         2.92720829673417    0.47638909527184    5.79989734390282
H         1.56647543424740    1.63210819044107    5.95912940920400
H         0.79228385882225   -0.10087180872122   -0.70500273313146

