60
CSD_code = UROPOH | q = 0 | S = 0 | Stoichiometry = C20H35NO3Ti | MND = 9
Ti        3.61746712615852    7.28649886501250   12.21101375949297
N         3.40376468577395    4.60813464848574   12.42535095130797
O         5.19415326170742    6.54701409226091   12.35951871269792
O         2.74844956384190    6.62977206511377   10.84975633428416
O         2.56357135319560    6.90303660682939   13.57699758239441
C         2.97803852906069    5.47329346029984   10.13593251711860
C         3.67139563667919    9.40180700357752   13.25379735359200
C         2.66578443508318    9.40568285131098   12.24731546864744
C         5.60851708264804    5.47970483229176   13.12941143061719
C         4.92154380022175    9.25099062297506   12.61289248282434
C         1.67833013648982    5.85180208574753   13.59438726738420
H         0.98770782106796    5.92414727696965   12.73171437769612
H         1.07927717053574    5.87116197737247   14.52464572950103
C         3.29857849903912    9.27781223900636   10.98616688043603
C         4.69178839940411    9.14436478649547   11.21454765730834
C         6.28805484124115    9.31320376210335   13.23220879931388
H         6.79974754154019   10.22991698142539   12.92697893877062
H         6.89475491363783    8.46672542105054   12.90664723726801
H         6.23245300199026    9.30233176278911   14.31930137276569
C         2.88634152422479    4.25855696045505   11.12095279287515
H         1.82864141790988    3.99467432109384   11.22336194466882
H         3.41401715441834    3.39459592759683   10.69400031289600
C         4.37053313959462    5.53600541411365    9.48047411737709
H         4.38343841681074    6.33846327939799    8.74430095217132
H         4.61612741738089    4.59784427530644    8.98624232086411
H         5.10521269717276    5.76432446901736   10.25381995955467
C         1.90417126430653    5.30527700732292    9.04363275634468
H         0.91363041423711    5.36055876169847    9.49121527383467
H         2.01744868799198    4.34832933921944    8.53991250235468
H         1.99529385595767    6.10469839339163    8.31194627540810
C         1.19984353390113    9.64007304750737   12.47346714331122
H         0.61014108370102    9.16857567427110   11.68694107751150
H         0.97306766484124   10.71072468395770   12.47465825396543
H         0.89080461949585    9.22759454925695   13.43391197197273
C         4.76371707819998    4.22401099734081   12.72335213359475
H         5.21432396884265    3.79615493999256   11.82333192416975
H         4.80981809536601    3.46822825928864   13.52078804974662
C         5.41581491880627    5.82043888562454   14.62036288805599
H         6.12898585938293    6.59152853106895   14.90726574219157
H         5.57139931512254    4.94643669761554   15.25035083128117
H         4.40815970954454    6.21850777802154   14.75770100391331
C         5.78597956631838    9.06051993369762   10.18816870744939
H         6.34206604521783   10.00113045579074   10.14172216603847
H         5.38437573483566    8.85497634019656    9.19730184547661
H         6.49041435738008    8.26711486597956   10.44533478330433
C         2.45175356651672    4.51663631369930   13.51080161256824
H         2.99144516681161    4.37282780530072   14.44962605474897
H         1.74924375313665    3.67720552262833   13.37849421195211
C         7.09609269912808    5.17492783354802   12.86353600265714
H         7.25816850952283    5.00968293878324   11.80003559530664
H         7.40627787593156    4.29000420888018   13.41373268407023
H         7.70802596540170    6.01798809500779   13.17585532245021
C         2.59408649612744    9.39143092477427    9.66344796887677
H         1.91680183646397    8.54840262154265    9.50899143715054
H         3.30755342966145    9.41534702457652    8.84155035231983
H         2.00696108167723   10.31151026406175    9.63003734668231
C         3.41269800604356    9.64404023694957   14.71370044827349
H         2.71738201035169    8.89957498227401   15.10749291565315
H         2.97269534856534   10.63295851167701   14.86308266120236
H         4.33406891436798    9.59151758693020   15.29101280234586

