54
CSD_code = UROPUN | q = 0 | S = 0 | Stoichiometry = C18H31NO3Ti | MND = 9
Ti        4.89661382661159    0.09782444827957    0.95461027857005
O         3.44860927208775   -0.66159492323970    0.30152858148793
O         4.90390062259430    1.77944008927322    0.42679575983353
O         6.19875589211376   -0.85776854735522    0.30115725069734
N         4.96933248421547    0.24415091673273   -1.76029744186340
C         5.98729056637424   -0.44566377670356    2.96622781064492
C         4.74338228669612   -1.12720310754120    2.90979274483574
C         3.70269659344748   -0.15988567600791    2.97242284286016
C         4.30447506484424    1.11751675023989    3.01764963901922
C         5.71617270056867    0.94449177162526    2.99987294899817
C         7.31911289626112   -1.12821656831934    3.10104560041768
H         8.13203113622686   -0.40493928487750    3.13434738798052
H         7.49181773090932   -1.80759134065178    2.26408216412710
H         7.34736214721716   -1.71341921748425    4.02338498464001
C         4.56689360264015   -2.61892245305504    2.91837772047241
H         5.33123718421595   -3.09662953628274    2.30308919871585
H         3.58670190180740   -2.88976729043909    2.52727456263259
H         4.65297866863721   -3.01601289313694    3.93444681647346
C         2.23947288013099   -0.48237052767288    3.08601754772148
H         2.07588183568481   -1.21867429657618    3.87511601143246
H         1.85971295939836   -0.89387642209125    2.14767391096694
H         1.66354950509618    0.40843129344380    3.32917084322915
C         3.61661419494503    2.44376441046260    3.16987744468865
H         3.70554955519313    2.80600300605000    4.19795677333919
H         2.55877868793133    2.36944950303015    2.92287299975108
H         4.06966147573957    3.18509696868293    2.51055521795409
C         6.70470162114223    2.06808441327939    3.13424146505466
H         6.49961838609695    2.84626721361086    2.39634158972918
H         7.72513829210563    1.71737654012051    2.98864993925918
H         6.63826263260645    2.52012938384794    4.12732490023275
C         3.42680486335887   -1.40329465696719   -0.85568330854433
H         2.42575771480339   -1.84997305131274   -1.00492902777509
H         4.17135294005528   -2.22113258074252   -0.79545893658832
C         3.76619896738500   -0.49852369602884   -2.06140952728820
H         3.86676699579751   -1.10297443959692   -2.97783374843097
H         2.94131745698262    0.20737089235711   -2.19482278013114
C         4.28802021764328    2.30024659899147   -0.68665274429255
H         4.41936867333805    3.39830795177269   -0.71821362821873
H         3.20265234425751    2.08187064033246   -0.65538238823899
C         4.89677473820269    1.67205742916012   -1.96319524182096
H         4.29549923992221    1.94069427105734   -2.84707395723683
H         5.90694270708877    2.06590617419767   -2.09637689756731
C         7.06405060819562   -0.58056603448052   -0.73673315344492
C         7.84381284043379    0.70992602441726   -0.41776816093077
H         7.12909062350103    1.48670486524651   -0.13747442866332
H         8.44323114598170    1.03072628757365   -1.26783598814311
H         8.50303370884881    0.52801853852151    0.43007577573718
C         8.05268172570299   -1.74575630851963   -0.93124927997055
H         8.69126607181513   -1.83892626486701   -0.05589981020850
H         8.67430525143174   -1.57623967164302   -1.80701083200137
H         7.50273792949016   -2.67650769723517   -1.05592131098117
C         6.22097561758830   -0.41424905497379   -2.04760841091976
H         6.80528447735346    0.13068212680483   -2.80180738881987
H         6.00946653728168   -1.41545919130356   -2.43634231941904

