59
CSD_code = URUGUL | q = 0 | S = 0 | Stoichiometry = C20H32As4Br2Ni | MND = 6
Ni       -1.30940534949066    4.51722216951461    7.52232739191468
Br       -2.79388177457530    6.00983031549229    6.57716458130035
As       -1.13402174625915    5.85856242360989   10.06794451335692
As       -2.94509658780552    3.37264075527580    8.57378443769494
C        -1.97252652727743    7.41401937847326   10.94973224044459
H        -1.93338911786086    7.34143722877917   12.03553731386523
H        -3.01337541423395    7.48574984208840   10.63410682962965
H        -1.46079713843396    8.32552433142884   10.63656890573090
C         0.61142894753388    5.90721210254146   10.98734488716021
H         0.51219333217616    6.14003388586948   12.04632569422506
H         1.24096970987525    6.66893429817097   10.52099022911095
H         1.09996990963647    4.93919629651855   10.87327304813790
C        -2.00781631443892    4.45208400312969   11.13058659988401
C        -1.91056232402160    4.45150940899437   12.51653516458805
H        -1.33624192527940    5.22493884879045   13.01160257955203
C        -2.53130634224065    3.48175278791587   13.28055600128815
H        -2.43873044673786    3.49956883118861   14.35713438605869
C        -3.27117634156945    2.48763128245248   12.66279612080911
H        -3.76007735104964    1.72526084716005   13.25216253177458
C        -3.37729007474782    2.47384361683515   11.28494476285920
H        -3.95433630987722    1.69472008710790   10.79766388232328
C        -2.74967316618511    3.44450433142851   10.51237493160563
C        -4.83221924674933    3.83681363034842    8.38727368734178
H        -5.43835989010455    3.20984802659117    9.04544207739818
H        -5.14038729594503    3.68821489858004    7.34990348320625
H        -4.98523878192350    4.88753824074128    8.63995725586458
C        -3.01819095184601    1.45726627852753    8.18938187343628
H        -3.95081330867147    1.01663704108500    8.54728847530576
H        -2.16527665785999    0.95066831026612    8.64504366356078
H        -2.96098485985453    1.32542726600931    7.10284687921082
Br        0.17345387376803    3.02313493630752    8.46857059029645
As       -1.48676647419039    3.17808332327952    4.97735871026532
As        0.32393323626391    5.66421159468986    6.47013716237235
C        -0.64846679432853    1.62250990636459    4.09501284063153
H        -0.68709926460127    1.69455397249193    3.00914225168129
H         0.39228456484959    1.55075634917934    4.41095090324343
H        -1.16002643393763    0.71090728150347    4.40818846923150
C        -3.23164002292168    3.12850832133314    4.05662395764551
H        -3.13259376321270    2.89557129903147    2.99762701181350
H        -3.86143580598842    2.36700132470093    4.52299679130957
H        -3.72019599665802    4.09652931874165    4.17051602011931
C        -0.61285229699958    4.58374924713552    3.91361603096465
C        -0.70997575023035    4.58425964649546    2.52765200018826
H        -1.28414792309078    3.81073272128398    2.03257035329811
C        -0.08931726426527    5.55410630559454    1.76365069359863
H        -0.18170220611522    5.53618822680433    0.68706313268542
C         0.65030415955165    6.54840879355787    2.38142321676917
H         1.13917761296191    7.31081888465633    1.79209059727075
C         0.75621845421561    6.56232463545319    3.75926863916336
H         1.33310437349528    7.34153153498446    4.24661908654507
C         0.12865565679071    5.59160498881422    4.53173588966436
C         2.21088140692640    5.19931413122617    6.65718852773539
H         2.81706030977832    5.82623588379593    5.99902619695752
H         2.51915271817775    5.34784017046135    7.69454767712845
H         2.36387510703353    4.14858952798985    6.40446089942837
C         0.39714694859763    7.57934446593084    6.85513004221046
H         1.33002186123665    8.01968993265507    6.49754804610344
H        -0.45557892694864    8.08593611025045    6.39910897566985
H         0.33954198564282    7.71096640036399    7.94168085735716

