54
CSD_code = URUHUM | q = 0 | S = 0 | Stoichiometry = C21H26BNO2RuS2 | MND = 9
B         1.50691665003097    2.19059959668875    9.48535281888267
C         1.32498158163040    0.42487422584302    5.79853534455410
C        -0.06580687831895    0.09211776764209    5.93404026415849
C        -0.83230518862934    1.25734293632657    5.64756832923498
C         0.09219466200717    2.32275668168422    5.31703368081648
C         1.41523478703282    1.79198523426562    5.39231333376522
C         2.44603876259544   -0.56548978875676    5.76613765073343
H         2.24284828614761   -1.40184058710021    6.43144222374348
H         3.38816152248611   -0.10139919121728    6.05385426266387
H         2.55415153148129   -0.95779599959390    4.75176846317505
C        -0.57712070005391   -1.30129809596735    6.12270208629424
H        -0.45317671312285   -1.86027940010746    5.19303217450001
H        -1.63212418405208   -1.30382906366738    6.38636128481415
H        -0.01933468581590   -1.81615405750349    6.90412127931302
C        -2.31720266410606    1.33097711925472    5.45748951281683
H        -2.70397711696372    2.29503225298610    5.78511833998678
H        -2.82259644200599    0.55129270863395    6.02285493443360
H        -2.56209466266430    1.20493451700854    4.40071809024809
C        -0.30267417819285    3.64276427556071    4.72497447968856
H         0.48815438861033    4.38044509803079    4.84533469946334
H        -1.20411619317377    4.02710938246448    5.20003189995348
H        -0.50219337990845    3.52260213524487    3.65800884256748
C         2.67155851335681    2.47914705400848    4.95449833927152
H         2.87705679960642    2.22705293109057    3.91186335441797
H         3.52160985617065    2.16226812838183    5.55537289521186
H         2.57898770265933    3.55987967373955    5.03302598067404
C        -0.42331597421302    0.53268059408637    9.04133275937318
H        -1.12792706332107    1.07128016214490    9.67544084033495
H        -0.74054471268301   -0.48618254187606    8.83121711132012
C         0.96549481264931    0.73664083321964    9.22944229926096
C         1.84149374044591   -0.41943375941879    9.00434002949436
C         4.05187398091015   -1.22061661219489    9.12806254023054
H         3.65250765331348   -2.09010898498577    9.65546971565395
H         4.97922987796224   -0.88608676061778    9.58744716043453
H         4.22733545040621   -1.49483373465082    8.08512088054732
C        -0.54727726806351    3.66763055358046    9.77096234341644
C        -0.17130277253599    4.34860221899550   12.11184483974169
C        -0.10702777686404    4.80729276113903   13.41498978355046
H        -0.84089674181976    5.50605918748757   13.78281558627597
C         0.91478526522594    4.34064718143356   14.22120368193211
H         0.98657902347105    4.68314720003175   15.24170135861734
C         1.84171794790540    3.42747444558706   13.73018684647301
H         2.62410298344566    3.06555045613688   14.37940899979973
C         1.77864778509456    2.96879339856771   12.42893531144214
H         2.48848184943467    2.25252852255037   12.05217673165625
C         0.76796145767594    3.44189524624832   11.59730376899437
N         0.54590396258765    3.09621994509603   10.28223642572761
O         1.47674531783202   -1.54876610586735    8.73177185653501
O         3.14796949789525   -0.13290188914564    9.21774537420596
Ru        0.35531610867415    1.71422839116096    7.40201805302587
S        -1.14394479575700    3.44438535108937    8.22216835386813
S        -1.36111204033253    4.73642714989393   10.89157228503503
H         2.62821246464934    2.37761184313218    9.78440554045767
H         1.43691790992349    2.71393941185286    8.05712495764435

