74
CSD_code = URUJOI | q = 0 | S = 0 | Stoichiometry = C33H33BN2RuS4 | MND = 9
C         0.20774396540752    5.94393910089644   18.67843529549378
C        -0.36952519417047    7.75064245583496   20.25390938601579
C        -0.51961354068122    8.80409780821553   21.13663225242435
H         0.31863379340529    9.44311441162101   21.36311970378341
C        -1.75984726249364    9.00548154345609   21.71203912244672
H        -1.90358004983199    9.81699436250322   22.40807962131908
C        -2.81896641904657    8.16622968372428   21.39143312858903
H        -3.78617019457324    8.33262327984413   21.84082805875051
C        -2.66722702560590    7.11743996713419   20.50474670395814
H        -3.50881170733403    6.49236020242047   20.26897604620881
C        -1.42476194353068    6.88646303847508   19.92060440614490
C        -1.58224183528810    3.23681490062153   20.33509876431729
C        -3.65774910438623    3.34571247838468   21.66767876976149
C        -4.75431141622545    3.27398725634466   22.50696667655814
H        -4.67539746750626    2.77894969815033   23.46140261865316
C        -5.94293776638035    3.83741431386887   22.08137798227468
H        -6.81356036666163    3.79223879982952   22.71678511191616
C        -6.02599985484447    4.44107693155169   20.83218905676858
H        -6.96760710474137    4.85231505685199   20.50177344038887
C        -4.92759316527968    4.52150523353419   19.99836381092142
H        -5.00738869410186    4.97352260010996   19.02367239217293
C        -3.71111342352979    3.99094929573498   20.42183428421650
C        -1.83135500686536    3.95358317887727   17.20616968901803
C        -2.02830069415049    4.56637436951442   15.86109848484692
C        -3.08919075776469    4.14425090376827   15.05575214249097
H        -3.77239957263626    3.39314836560023   15.42481894529432
C        -3.30075903056897    4.67838840577070   13.79960703269592
H        -4.12708974135716    4.31981148145903   13.20064984931129
C        -2.47041668002732    5.66966544296942   13.29350181519399
C        -1.44178030149014    6.12797397769871   14.10537797600942
H        -0.79065539089230    6.91375774313215   13.74705852179212
C        -1.23321109105210    5.59826100060540   15.36464430920949
H        -0.41925866210584    5.98496644546321   15.95730898588158
C        -2.70252706483790    6.24891779801520   11.93048876649806
H        -3.07667135684759    5.49044096847558   11.24567350445777
H        -1.78430230187886    6.66856528832804   11.52567242011368
H        -3.44383434763566    7.04727056362769   11.98404049224604
C        -2.07765087276922    2.56760397418797   17.28248695295751
C         2.05636701213212    2.07738982362600   16.79586864891642
C         1.41379413867057    2.54764117924002   15.59059411081728
C         0.26083815640751    1.75227599751304   15.36608325870046
C         0.18049592529901    0.77980928115603   16.43582765175994
C         1.31731453218790    0.96179407711766   17.27652699186245
C         3.41035951269341    2.49565926461829   17.27977191757256
H         3.52249945174997    2.28592381904037   18.34183615190843
H         3.57038878209698    3.56094980230477   17.12151164169980
H         4.18338881794009    1.94791699873761   16.73629637016195
C         1.96358997872597    3.56560730070195   14.64220322074981
H         2.60559987838185    3.07426371016982   13.90784613140749
H         2.55435111164971    4.31218610781127   15.16942042521618
H         1.15893202611028    4.07232085585533   14.11178622652682
C        -0.55555470247529    1.77332184922207   14.10987386253750
H        -0.83345583000565    2.79138485981021   13.83956658330587
H        -1.46612425295473    1.18824854926426   14.21342784407403
H         0.02907089502457    1.35088959027283   13.29005203676151
C        -0.72111647559959   -0.41809994272373   16.46976623657845
H        -0.19249545095814   -1.28385045113262   16.06510233173369
H        -1.61716811252677   -0.25951637194640   15.87457846798532
H        -1.02604308754592   -0.65183162459696   17.48858150316763
C         1.72361553070435    0.08498108007418   18.41789025775091
H         0.90468513295501   -0.55871362357330   18.72874400384750
H         2.03504037693148    0.67996388413324   19.27570544376348
H         2.56408327244564   -0.54252141477554   18.11549652589093
B        -2.18789050303617    4.88860485829599   18.49054666026476
N        -1.07851805153756    5.88825789898481   19.02631706000564
N        -2.51488816405369    3.98570702003965   19.73842963908242
S         1.09152669776053    4.96586532044748   17.65760791876836
S         1.07842405687542    7.28022178856934   19.40913067396408
S        -0.09802477463894    2.75156143344263   19.73863765727065
S        -2.07421998451851    2.65698165344633   21.91890000096902
Ru        0.04766036458736    2.83059932188489   17.31665496354312
H        -3.12518844369297    5.56966908650900   18.23347979789775
H        -2.39176401365939    2.04653353642805   16.38172529411258
H        -2.49034515181959    2.12175115245926   18.18671596541522

