67
CSD_code = URUJIC | q = 0 | S = 0 | Stoichiometry = C28H29BN2O2RuS4 | MND = 9
C         9.30846389158337    5.78482857155540    2.01214277681387
C         9.19039024482454    4.88507306622410    0.92563696630459
C         7.92743115238768    4.19251900678058    1.05332895821635
C         7.27380484364228    4.68622529484447    2.21416907923878
C         8.15096323757055    5.61656286108365    2.85918514719309
C         7.76202757305277    6.50845566546371    3.99915547682123
H         7.19217792848376    7.36107889622466    3.62364080017977
H         8.63920020839867    6.88416855011779    4.52125738282485
H         7.14052647241684    5.97334553844626    4.71472252049284
C        10.35569245397949    6.84560301673445    2.11570598766651
H        11.34964086327833    6.40282253937922    2.06595860705492
H        10.26227827862030    7.41134519011457    3.03921992343541
H        10.25082946364775    7.53350051705825    1.27504555633717
C        10.13801119389023    4.81524519689821   -0.22744146936968
H         9.95981036762107    5.65078478928933   -0.90750945786997
H        10.01778231859223    3.88570266179362   -0.77981271097611
H        11.16350967422144    4.88195564843333    0.13386150888094
C         7.30971096301992    3.32295893172498    0.00231758023077
H         6.57531298743251    2.64752569717014    0.43690021577136
H         8.06527254805740    2.72314891866956   -0.50204810708919
H         6.80975183011241    3.94593968433529   -0.74209979518060
C         5.87627073728937    4.37208307893709    2.64226535344942
H         5.78324375255017    4.40026033180465    3.72599406143433
H         5.57396741853553    3.38425294551799    2.30159341401844
H         5.19169535365875    5.10930136675896    2.21852019989248
C        10.96956155220879    3.09028239875405    3.89807783241889
C        11.97733450417420    3.28411358920657    2.84044548632045
C        13.54404569793681    2.21510108368124    1.45490394246172
H        13.01625360734238    2.34306928325951    0.50615308857355
H        14.09452998322856    1.27717053831247    1.45636470853298
H        14.21970385940511    3.06067895062369    1.60158820915500
B        10.98336181977679    1.69640854759589    4.71427951281160
H        12.07115014577423    1.46414121799654    5.12548682476271
C        10.31097602078561    1.64816962525319    7.24444098662860
C        11.58691379530112    1.63874607413997    7.80363546615938
H        12.45201083120727    1.76070958130906    7.17386105862185
C        11.72489875998289    1.48600177141618    9.16948304307136
H        12.71467998091992    1.47949016348112    9.59958718699099
C        10.61717280174346    1.34576875098133    9.99727029334322
H        10.75135568049621    1.22429145319079   11.06071707658320
C         9.34105466791301    1.37654376077864    9.46668970851751
H         8.46806781208312    1.28745776589662   10.09287808736112
C         9.20290938864077    1.53688156349424    8.09999749982256
C         8.65963429404861    1.88928955594660    5.71850458877107
C        10.18006805152563    0.41445413810169    2.58994182839474
C        10.60304233658916   -1.86797179536622    3.42956596037922
C        10.78235274657466   -3.20190053064049    3.74690940336860
H        10.62656706880894   -3.96208581399097    2.99850830881651
C        11.16001660500081   -3.52284374515300    5.03704616264905
H        11.30319293954866   -4.55599390739777    5.31261244448232
C        11.35689275087614   -2.51851714767173    5.97640688848922
H        11.65438342432753   -2.77895710160835    6.98084470041238
C        11.18159862561874   -1.18594359778431    5.65574258843184
H        11.34998197024135   -0.42898634533789    6.40024351102127
C        10.79480906429185   -0.83903035609643    4.36443907809796
N         9.97556101165786    1.77701093361204    5.91366459789568
N        10.56564233031251    0.43040649091969    3.86604520497133
O        12.26353321905913    4.33909851039638    2.30254580588489
O        12.61559681853398    2.13451181140488    2.52195219838504
Ru        9.17737228749688    3.65527922242223    2.80211029405836
S         9.73543725835427    1.65670420747369    1.56684413838414
S        10.12514189474090   -1.19468213969543    1.89652641557920
S         7.86105871012817    2.24138078020597    4.29529563253494
S         7.72230363548241    1.66624662573927    7.18616391837953
C        10.42334157803523    4.27732044211818    4.42814549354236
H        10.92053879328514    5.21239342537093    4.18193460463574
H         9.99248591967421    4.25950225229711    5.42813624451624

