69
CSD_code = URUMOL | q = 0 | S = 0 | Stoichiometry = C24H37BrN6Zr | MND = 6
Zr        3.65306396931296    4.77480590614237    8.63646208232750
Br        2.34719433119664    5.43939742348911    6.41125128185562
N         5.98452702985786    3.81819600338150    6.66025320208632
N         4.97917427600957    1.93794117969083    6.90232074919653
N         4.42849006988481    7.87468967388828    8.48632244782292
N         2.57967219794307    8.06138878895493    9.56095900334462
N         2.07197466211251    3.61793972906439    9.31024361027447
N         4.87491702784196    4.57332539516763   10.30066303725236
C         5.32215394956011    5.86832657199714    7.62090875332790
C         5.46746080324892    7.24987110795749    7.74636953785322
C         6.51512662116722    7.94367861099502    7.15175302751194
H         6.63813479868891    9.01099535042239    7.26781710969582
C         7.42416907706379    7.23561976737373    6.37927629633064
H         8.24189755261381    7.76193636896565    5.90936826092955
C         7.29143734930302    5.86925202455335    6.17946719488116
H         7.99750446597331    5.35597630277036    5.54254492343755
C         6.24114192990279    5.20858340733017    6.80550796763729
C         4.89977160741330    3.23881274106875    7.24542656377030
C         6.71395448090650    2.88900608829060    5.96937153228751
H         7.60597549591481    3.12160861344702    5.42600594010673
C         6.08162183870446    1.69918828624940    6.12618896204043
H         6.32382554555533    0.72776399521461    5.74554511138224
C         3.42756154469271    7.14460198352848    9.05183967969082
C         4.20274728467158    9.21465404872903    8.65286484659996
H         4.85661357519571    9.97582708882849    8.28148840988741
C         3.03512621879097    9.33315812088219    9.33090524486914
H         2.50526294236875   10.20642502058145    9.65333259531060
C         1.33947450762063    7.73106905998502   10.22424875540484
H         0.76849890878356    8.65557780925185   10.34215658670857
H         1.55344116979631    7.32686746183652   11.22323751303979
C         0.54376335926789    6.70279161869015    9.41472104375354
H         1.14519693788554    5.78123786606297    9.33863832312672
H         0.38471389499279    7.08608459634682    8.40302084491158
C        -0.80699757962897    6.37569312152279   10.05190386707859
H        -1.23301218999490    5.52426237085397    9.51906450242984
H        -0.65780890404148    6.07616146315420   11.09244049004758
C        -1.80043230640157    7.53137426581750    9.99069523731811
H        -2.77206855638990    7.21200784725956   10.35989664427353
H        -1.91986626634033    7.87044327720452    8.96454712875629
H        -1.47321341973047    8.37170705522323   10.59822785380642
C         4.05041954732349    0.94320575984328    7.38052490025762
H         4.23351390656796    0.00713215144810    6.84492013109428
H         3.03018501510856    1.28272747172142    7.16927132900597
C         4.22020915495991    0.74490788697943    8.89063705334176
H         3.99073280354723    1.69731319101291    9.38792858077104
H         5.26174118999575    0.48541839930820    9.10307406962889
C         3.30912059441526   -0.35427946466348    9.42954815728874
H         2.26927729124368   -0.09003100226779    9.22743737478739
H         3.51912392169609   -1.29409780443250    8.91208545690115
C         3.50249090168781   -0.54617841346200   10.92856768454788
H         2.83167835717875   -1.31382869676334   11.30694006790318
H         3.29970663156696    0.38244510979834   11.45682407274412
H         4.52507831020016   -0.84605682778176   11.14708855387773
C         1.88542435622539    3.33379777910746   10.71624104537332
H         1.79078053969318    2.24501708900421   10.89981533269133
H         0.95421851136699    3.79166474175176   11.11069273627102
H         2.73349183087597    3.70709878756440   11.29655512194691
C         1.01180561052746    2.98359346679594    8.55858106622739
H         0.01361423529532    3.35542623228574    8.86283430188927
H         0.99478375250622    1.88698589447772    8.72375582452555
H         1.12523092251647    3.16722628678512    7.48796318166166
C         6.19893613320051    4.01176232325910   10.20852752719211
H         6.52524172203722    3.60573993762346   11.18576383612398
H         6.96402694452120    4.76032744401416    9.90872563112624
H         6.22083846961181    3.19095540603381    9.48554482125572
C         4.86324005625988    5.57576751367224   11.33516412925063
H         5.20577711027828    5.15396943026047   12.30096710676453
H         3.85053853892303    5.96646137576474   11.48379042965510
H         5.54028343888800    6.43128111869307   11.11517431355736

