93
CSD_code = URUVIO | q = 0 | S = 0 | Stoichiometry = C22H44LaN11O15 | MND = 10
La        0.27828008609260    2.02322723935360    8.40299405473917
O        -0.70164789027699    3.64999895330196    6.82491690153137
O         2.14360516571860    6.16525252102807    1.26293443135167
O        -2.10838340306362    2.15326842877171    8.91091395446287
O        -7.15055140390987    1.90587008435732   12.17301933208533
O         0.44554302700416    1.23363480839376    6.28736566555002
O         1.77235876309067    0.43885672891797    7.73332035005039
O         2.35607014611128    0.53663043339709    5.69842359535185
O         2.05626142542240    3.09546193086180    7.53502083220293
O         2.23075977519395    2.49351831343787    9.55623507689091
O         3.19409638560525    4.25876986325643    8.88420793705491
O        -0.24128806993526    2.53970965513924   10.64195517608293
O         0.14770988439748    4.11161639744014    9.27349862692039
O        -1.03563749135604    4.46873551782749   10.98512273622646
O        -0.96160021663562   -0.26158044594542    8.36061277046301
H        -0.65018836393342   -0.70442732196312    9.16644584555062
H        -1.88068060075434   -0.00613261331251    8.52210046074835
O         0.90906689362596    0.06347017428744   10.34820912451173
H         1.76904365040086   -0.15780818524719    9.96415600291195
H         1.08837660274705    0.65397647963032   11.09155005721663
N         0.58837334083965    3.96213319094061    5.00612203401114
H         0.31211747764985    3.01332776959425    4.77646165106770
N         0.48832082339193    5.56079882871431    6.68122129720674
H         0.26547245259449    5.72341913511550    7.65481386487753
N         1.42725974155932    5.07039425173932    3.11053613784226
H         0.56638685298544    5.58911510103584    3.05084274725409
N         3.59611409827190    4.82845103014859    2.36683064397624
H         4.24861585529009    5.02766880529801    1.62173346242494
N        -3.89252074395935    2.90976389033860   10.05836457770083
H        -3.86975665864420    2.05093361078038   10.58756146473290
N        -2.83846883473495    4.24425391987042    8.49710903862359
H        -2.09803811473631    4.28453770603292    7.79338110812094
N        -6.01962418900291    3.43475437364548   10.94059401711013
H        -6.66941165269190    3.22300469727291   10.19731329131330
N        -5.18143656460410    2.67631200380473   12.95708771779173
H        -5.35665205132551    2.13519956535949   13.79121807059715
N         1.54395606416686    0.73400345002906    6.55469422655174
N         2.50345932542902    3.30599359716831    8.67419928398189
N        -0.39189067733928    3.70991706141488   10.31158051605491
C         0.13501270374879    4.35454349957740    6.21296414572375
C         1.53751095826367    6.37660815907057    6.07866778188506
C         2.49488232023452    5.44202046901661    5.32578083882468
H         3.03014884487028    4.85357587205102    6.07132275222142
H         3.20759377060907    6.03604152418259    4.75600965548974
C         1.79394364794524    4.46044338392751    4.37178787424634
C         2.30526762301473    7.07254589884676    7.20257781323439
H         1.64298051152881    7.72432815223224    7.76798069866045
H         3.10799911536779    7.67576137825679    6.78787115225967
H         2.73612751287485    6.33882641435994    7.88055375437072
C         0.87968836929085    7.41905690995536    5.16515856634356
H         0.10140751336877    6.96402948923960    4.55938460920181
H         1.61524249450443    7.87273500501266    4.50745471995503
H         0.42161783078939    8.20225130195960    5.76485087906646
C         2.37281292651582    5.39583400571803    2.17479264659688
C         3.88214647041035    3.61505046227442    3.12257475747316
C         2.68331072188006    3.25997425047422    4.01830895519902
H         2.05059038324608    2.54941133406076    3.48333006484089
H         3.02720872030760    2.77065269560169    4.92775885608473
C         5.15791664250103    3.83716580146079    3.94240495495935
H         5.98433666979368    4.09300616571931    3.28309049564757
H         5.41193190425965    2.92648784868755    4.47691246212414
H         5.03342071445223    4.64037869004259    4.66065260193313
C         4.12033715184408    2.45770042234113    2.14199573770104
H         3.27734099191836    2.36039752499994    1.46140278040965
H         4.23655401897016    1.52718172774420    2.69033987389419
H         5.01943622025278    2.63275801537099    1.55502952742672
C        -2.90660276287016    3.08680747783397    9.15197959390021
C        -3.70904090173029    5.39558282488582    8.64701330924969
C        -4.96264466802434    4.98434028810035    9.43722617147055
H        -5.45483081588801    5.87007537504165    9.83562216335490
H        -5.65168817619021    4.50646189528122    8.73664260527231
C        -4.73803681725336    3.97886048299291   10.57729362255553
C        -4.13825783861903    5.83696884237628    7.24165584496486
H        -3.26698578674095    6.11976083304087    6.65650671888585
H        -4.80770890704051    6.69047327715936    7.30413659131815
H        -4.64690091299714    5.02789680546630    6.72356402105451
C        -2.92456223659748    6.53655077742140    9.30626419658064
H        -2.39444230508172    6.18858382304288   10.18616278016159
H        -3.59076987978022    7.34751000450987    9.58582720385420
H        -2.18858371644290    6.92202875667093    8.60477256724629
C        -6.18153311021620    2.62444357332892   12.04469696219824
C        -4.11726947484423    3.66425208354502   13.05942537260623
C        -4.13798332698007    4.60873910874746   11.84241338746681
H        -4.73974576020406    5.48644565031628   12.07969114523992
H        -3.11575053049276    4.92021318489965   11.64357586494422
C        -4.34152484158649    4.49269512723198   14.33238181708647
H        -5.33172919843928    4.94320924845855   14.32225100982482
H        -3.59643634891465    5.28023979288597   14.40093761640220
H        -4.25886413078884    3.86207328724705   15.21463930452721
C        -2.77644124787270    2.92977776285167   13.17780549333427
H        -2.80288652872380    2.23908042674904   14.01777813255287
H        -1.97708296820857    3.64658253175774   13.33855339984805
H        -2.54033447065503    2.36834940609614   12.27895606591311

