106
CSD_code = URUXOW | q = 0 | S = 0 | Stoichiometry = C45H54BrNO3SiZn | MND = 2
Zn        9.07837615090093   11.06109522136846   26.33604587185687
Si       10.97589923922036   10.67733884651171   28.39692690631083
N         9.33733718505334   10.31642665836887   28.04188464942541
C         6.78293934899599    8.70244491861345   26.76694564051696
H         6.19480370514715    9.29242479873326   27.45561639801159
C         7.81801928083819   11.56485794792553   29.50674963848059
C         7.20107659543711    7.92461870293246   24.53197502707318
H         6.98392669391072    7.95322311981071   23.47561673910089
C         8.39305853250030    6.11113168295540   30.48355442053726
H         9.30651814326184    6.59527187693490   30.80035545221335
C         6.73319968306882   12.33334528503510   26.98457498421603
H         6.20307029895211   11.65270334679661   27.63646597616606
C         7.71926139681649    9.15449594770548   29.41158863353846
C         8.17387196149898    7.88433946243510   28.72912373226221
H         9.26825173144857    7.89219020331225   28.78796958162413
C         6.49753734421988    6.01391708358152   29.02605565362329
H         5.92831242087233    6.41592250829360   28.20039158306524
C         8.32197176076451   12.86209523480022   28.91023609192957
H         9.41469533694063   12.80942079832236   28.90163210881854
C         7.80685153762668    7.89992187350365   27.25996846089810
C         6.72800010062876    9.16588829478516   30.37611299761082
H         6.28056542096543    8.23418234560341   30.69143899221532
C         7.84684193729343   13.02178861073544   27.47957511404366
C         8.49573426979548    7.08343616358429   26.36941958989853
H         9.26769550842686    6.42355580506511   26.73931771507489
C         8.19945153953958    7.09776420310782   25.01796098146120
H         8.75462220602820    6.46738564438478   24.33938339888307
C         7.67514664339674    6.63872818516836   29.41682117881570
C         6.48546068842283    8.71718722610857   25.41293137388651
H         5.68565299443522    9.34382096000712   25.04461597631538
C         8.31510781677773   10.35591271728144   28.99836816070622
C         6.25762534826033   12.58220140041019   25.70385175010281
H         5.38723142357797   12.05268241462425   25.34481217368502
C         8.44553637165417   13.98090530051486   26.65758606058245
H         9.26072923197379   14.57249471520488   27.05040539586843
C         6.29414213728136   10.35514537813940   30.94647373752038
C         6.88106119198045   13.51622245345121   24.89521084610681
H         6.51917721674382   13.69878179178457   23.89562090782818
C         6.83133677701827   11.54498166877549   30.48130827716275
H         6.46639132592708   12.47929187048140   30.88383693295465
C         6.68071384882273   14.67557144068111   29.55288082900162
H         5.96961757057562   14.25491258013757   28.85587707927168
C         5.23296824890832   10.34336611052494   32.00624199435165
H         4.27116893274633   10.05957099038910   31.57786653892809
H         5.12960709304169   11.32502545619390   32.46250941255293
H         5.47679720418035    9.61868996418342   32.78144382281977
C         7.97163626749360   14.22124598652474   25.37956610771483
H         8.45002078712882   14.96403268656029   24.75837010158498
C         7.93205283663547   14.08764233714443   29.70087964455317
C         6.05045468374682    4.88297459113424   29.68635651757855
H         5.13354054947773    4.40599110051555   29.37161770553875
C         8.83468504392716   14.64680010697973   30.59550394047102
H         9.81136206370312   14.20014335190408   30.70933968696464
C         6.77244925003995    4.36350789910977   30.74700281180112
H         6.42323559253481    3.48005881477792   31.26099267998037
C         7.94540223000452    4.98228242766873   31.14529181954816
H         8.51412998532749    4.58276507262048   31.97262717447283
C         8.49267188670877   15.76397053400434   31.33672794647635
H         9.20454043767178   16.18759812744563   32.03018809428290
C         6.33924948153065   15.79428686502999   30.29167624851235
H         5.36326911647867   16.24079011898839   30.16770815137653
C         7.24319972579710   16.34073326396807   31.18694290096781
H         6.97554900756665   17.21426452107701   31.76284831745670
Br        9.29058804645659   10.95905024133951   24.07920555833251
O        11.17131496267987   11.80024739343691   27.17549380830063
O        11.21877459374384   11.41232428296227   29.81536477560834
O        12.05469015464542    9.46374978341998   28.33369110364206
C        11.54461633931866   10.85690095241005   31.07825515508917
C        12.22407237725389   12.74879634085658   26.97145615094156
C        12.41840318571279    8.42594868506645   27.43504554674051
C        12.00982718269204    7.08991266734988   28.06565829858546
H        12.49631308218129    6.97069939881544   29.03138789463376
H        12.30247457128306    6.26632731934500   27.42013868314494
H        10.93534433617080    7.05482049275098   28.21371668029821
C        10.81461215193706    9.53575714328246   31.29790485866587
H         9.74395695196716    9.68231502817442   31.17930747425558
H        11.01641986972083    9.15528051686690   32.29580187294464
H        11.15018138071046    8.81279648301980   30.56154263225807
C        12.15545652129879   13.83130711625230   28.05231127725708
H        11.20526590357186   14.35756301179115   28.00894361152307
H        12.95800750926806   14.55069058901078   27.91219971780682
H        12.24868227138289   13.37110720291788   29.03118136522360
C        13.94589396358208    8.44673822980089   27.29124675825615
H        14.27784348306689    9.35164966143845   26.79371583602275
H        14.27167928317203    7.58866961423555   26.70973648043471
H        14.41000905785272    8.40180799642989   28.27362809770738
C        13.58956477658483   12.06650705843852   27.02311870388347
H        13.71214003865485   11.55107008746971   27.97101042718482
H        14.37855179488597   12.80638297996013   26.91355067934536
H        13.67282421469310   11.34843420834073   26.21118221274002
C        11.75107832542033    8.60982748578395   26.07698936760701
H        10.66760468728002    8.58838306755338   26.18994879353517
H        12.04933138413025    7.81911379930306   25.39406952626696
H        12.03538186669737    9.56753559752825   25.64751935662334
C        13.05793166617399   10.64220962284548   31.14093846685374
H        13.35116465156295    9.96169190181580   30.34711805584496
H        13.34175412495157   10.22172742610200   32.10178493990785
H        13.57683163099767   11.58782211991593   31.00099152428993
C        12.01474242764153   13.36408844210156   25.58430732386686
H        12.03721398121654   12.59098866811213   24.81935134894723
H        12.79962860268166   14.08630899177631   25.37603952052169
H        11.05215252437816   13.86584168212208   25.52947438263217
C        11.09854152196110   11.88016645966131   32.12618822750521
H        11.60209071449836   12.82978818344632   31.96038841797953
H        11.34002028740444   11.52550839880523   33.12429695696252
H        10.02431325686303   12.03367665322378   32.05410949321399

