94
CSD_code = URUXAI | q = 0 | S = 0 | Stoichiometry = C33H53BBrN3OSiZn | MND = 3
Zn        2.06378931025668    3.28905343522030    4.94897184080906
N         4.66531845252802    4.65676303128941    4.44713148625985
B         3.57309611986700    5.29962390761768    3.76330806607313
Br        1.37314428575766    1.21975134887260    5.64426191182383
N         4.13931772712361    6.51869948618474    3.26138033083774
C         5.48379018205538    6.54517109696500    3.62216262290445
H         6.11140290762867    7.37013527028625    3.34285214305142
C         5.79887695222044    5.44584486656002    4.32260628814161
H         6.74643560771417    5.14236907412750    4.72446965498209
C         4.77294987404245    2.22826834706179    4.37091693620070
C         4.72812910437191    2.14368488547748    7.15927488790100
H         4.72117809515829    2.09318447689339    8.23716919167492
C         3.62563310112726    7.66100722615472    2.60678245379712
C         2.94731091502041    8.55091340975198    4.86955077993043
H         2.92548625752257    7.48033184168219    5.09856962706767
C         3.06485196316352    8.69399617912755    3.36882419147417
C         4.66738600564292    3.42045785668517    5.11743258920370
C         4.85752235729428    1.01925160212102    5.04862405988926
H         4.94698772794793    0.09870751397968    4.49291967770284
C         3.58077962485270    6.40845683426730   -0.88179169102770
H         2.51779543504373    6.32749599821246   -0.66969934007326
H         3.91421966472706    5.47924155217232   -1.33953437829825
H         3.73153501123585    7.20751763190701   -1.60372058916374
C         4.64206860428081    3.37837335452663    6.52694443610160
C         0.52111891870236    6.74992504977751    2.19478824330438
H         0.54153885210493    7.37686122615327    3.07952328816727
H        -0.48615788912896    6.77994559468956    1.79077613561457
H         1.18139543722061    7.20311943856424    1.46573603777930
C         3.82754742415981    1.36907664243651    2.20544649411165
H         3.98485665076805    0.32377338561464    2.45928161150623
H         3.87676073932983    1.47054643095710    1.12353413510443
H         2.82646878723183    1.65545917595797    2.52857899362819
C         4.87448582734718    2.26845132771387    2.86306779750900
H         4.69137575656646    3.29559067733362    2.53254076788516
C         3.76380088215711    7.78695650819746    1.22036131189404
C         4.83085792061397    0.97461106776892    6.42970250664204
H         4.88810171112188    0.02499505454023    6.93851343680315
C         2.66449149568087    9.85578688682104    2.72535226888191
H         2.24224345026049   10.66956465686063    3.29406584343562
C         4.36813636288248    6.66887911609815    0.40367378123348
H         4.34213187827709    5.75980371685941    1.01390699693825
C         3.35484366418000    8.96656513505098    0.61309579516907
H         3.46706495804785    9.08828611011309   -0.45327557159255
C         4.61916567782803    4.65602543258197    7.33642993205323
H         4.31806487416351    5.47526550376147    6.67357730796709
C         2.81192090953845    9.99484891107585    1.35828027001767
H         2.50433997315314   10.90960297577668    0.87286019096612
C        -0.54565996943251    4.11305191796790    3.28902915387272
H        -0.35051406854164    3.09750197519658    3.63144729854315
H        -1.32120211604641    4.04498953303397    2.53288452384293
H        -0.95930470192961    4.67277087153817    4.12235819808864
C         1.40075702491341    4.04431880196538    0.91496781781954
H         2.44643080830078    4.14059070088342    0.64335107857237
H         0.80822343132664    4.45235188002220    0.10205176047246
H         1.17560609338677    2.98332690915489    0.97826697180158
Si        1.01845502330995    4.94567251097653    2.56155710715396
N         2.27814262434498    4.71667668911903    3.71355711867178
O         0.86669082214761    4.41869012701583    6.52346003319582
C         6.28799009609057    1.87048066284197    2.42972855025647
H         7.02305935497808    2.53731749682636    2.87560805802457
H         6.37902998140738    1.93181898630341    1.34753733367563
H         6.51482649745603    0.85252059599256    2.73827652556878
C         3.62788669221079    4.58564749528940    8.49954750611394
H         2.65898638018688    4.23290348685896    8.15566455338104
H         3.50705961196567    5.57246176094689    8.94320688760545
H         3.98089437826985    3.91218126489005    9.27680563029974
C         1.67532772582061    9.18689426543505    5.43173973291704
H         1.72557594079497   10.27196372356703    5.38687305149680
H         1.54933201825256    8.90314559459409    6.47484929022502
H         0.79810778929996    8.85825936186963    4.87899559209128
C         5.82879885808985    6.98680940415350    0.06963692825463
H         5.89676508791261    7.92345215497459   -0.48025433586838
H         6.25595855870237    6.19436442401205   -0.54153568577974
H         6.42009745321658    7.07615999713598    0.97731102797202
C         4.17945606992842    9.16085862964194    5.54648578770944
H         4.27361596929703   10.21264219263446    5.28335020620772
H         5.08231952725473    8.64310093149910    5.23266573737523
H         4.09481794773284    9.08071090346827    6.62868235302830
C         6.02395155441233    4.95574568225445    7.86926165985074
H         6.01557131422367    5.87495988295756    8.45127540631985
H         6.73095962591804    5.07448662927396    7.05265409065287
H         6.36896794435699    4.14409093374783    8.50662875538603
C        -0.22770829425959    3.86190555268086    7.26529219984173
H         0.16380317106650    3.09118217455760    7.93274685873621
H        -0.93213692087381    3.39311073083714    6.56853726667462
C         0.73909285510163    5.84237436400352    6.47032801317646
H         0.89929203838455    6.16218904785092    5.43983286618942
H         1.51742327242216    6.27798644384433    7.10926779318182
C        -0.87649833108498    5.03203346767559    7.99544454650382
H        -1.92618270725257    4.84791191871457    8.20808287307488
H        -0.35393812144810    5.23554066222609    8.93094936155485
C        -0.65143247125894    6.17070100186409    7.00319164501421
H        -0.69263082401692    7.15535840501809    7.46220775899052
H        -1.38822456513310    6.12424760083044    6.20066835998461

