23
CSD_code = USAKUW | q = 0 | S = 0 | Stoichiometry = C9H10AuClN2 | MND = 2
Au        5.32972658009155    5.10528392737833    1.95012879686822
Cl        6.67264388361907    6.65799077378952    1.04649471278760
N         4.39575626948038    2.40790823151661    2.93534444099327
N         2.86929822946806    3.88879679813488    3.19316664229892
C         4.13504354580145    3.71268339657480    2.74746634445088
C         2.13884563019525    5.04028519515518    3.22319464237232
H         2.63358754476033    5.91975781246310    2.84076835286184
C         0.87740206085890    5.02319111124178    3.71058771107579
H         0.29937326495792    5.93172345955456    3.73350480580908
C         0.30470068892933    3.81383501021389    4.19467014404831
H        -0.70279603815508    3.82903462842220    4.57807139445002
C         1.02140994653355    2.66110794789716    4.17159408559930
H         0.62337740420650    1.72534870653970    4.52891355914503
C         2.33946917975450    2.68507368211315    3.65936664465783
C         3.33116403418153    1.75452116342934    3.48070042313819
H         3.34700853693420    0.70906780320168    3.70658272445935
C         5.62402862755452    1.76282570081768    2.54516455059739
H         5.83797599686664    0.96260531707495    3.25833255519384
H         6.42196424359508    2.50805595739732    2.58636511778891
C         5.51680379865602    1.20160127394007    1.13050091827527
H         4.70962290308324    0.47547095137072    1.06345745324442
H         6.44856096627276    0.71581587167885    0.85699254982042
H         5.32483270235288    2.00691528009401    0.42603143006486

