67
CSD_code = USAPOU | q = 1 | S = 0 | Stoichiometry = C25H35ClN3O2Ru(1+) | MND = 8
C         0.64688060700082    6.62866461054296    3.39058211465294
H         1.54702595581139    7.20254111650051    3.18754273655207
H         0.56898484561867    6.48444347350582    4.46520795849011
H        -0.20715023256820    7.21496990161546    3.06217784986163
C         0.90110977747228    5.48637044226243    1.16131263737832
H         0.16689228849411    6.17854114388450    0.75710092480751
H         0.81450302500967    4.54382272246926    0.62255636252817
H         1.88527081968979    5.90381244659912    0.96376209178607
C         0.71829076273915    5.28658830657825    2.66590482308733
H         1.58142838656606    4.74592783482929    3.05388869772568
C        -0.52443785430853    4.43819541264750    3.00075830083597
H        -0.62823128168629    4.37808332393497    4.08844364863989
C        -1.81767803407472    4.97801441717410    2.34909233583242
H        -2.65383601855568    5.02356559844905    3.05254736709661
H        -1.69553121147660    5.94680074447142    1.86820845204485
C        -1.37844308504568    2.95904257765564    1.58712761962805
C        -1.69341221080342    1.66687490987138    1.00865938046353
C        -2.57298471884928    1.42747176397906   -0.03929903537526
H        -2.99019971616995    2.26060350846491   -0.58120250900415
C        -2.90642719924644    0.11334872293500   -0.34297628538073
H        -3.57532179905077   -0.10453475210171   -1.15947336823065
C        -2.41157912862448   -0.91006206280781    0.45241686664792
H        -2.69408405364094   -1.93924684465944    0.30084234038386
C        -1.54845969907903   -0.58656830475275    1.49394570161131
C        -1.08182966009275   -1.47825281665148    2.53094968331796
C        -0.78580643300223   -3.30171962340881    3.73681987617777
H         0.03220765689342   -3.95903887405895    3.42647924443740
H        -1.53072517881119   -3.88613645633908    4.27465754184951
C        -0.29308578796112   -2.06182618881307    4.51511245700878
H         0.74391723944094   -2.18952384226600    4.82889634111922
C        -1.14044822077203   -1.72046710278206    5.76369840516519
H        -0.84025948982483   -0.71776226072279    6.08198309717992
C        -0.82648765818428   -2.70848665849948    6.88311905529119
H        -1.09410805483279   -3.72357728644363    6.59922502547244
H        -1.39325639128819   -2.44602243938675    7.77160208680077
H         0.23093021896168   -2.69019936949394    7.13708048276018
C        -2.63684778123417   -1.67506381535272    5.46804042809925
H        -2.85117762314200   -0.97704506947687    4.66139565078854
H        -3.16261716916438   -1.32394276995541    6.35141945097720
H        -3.03600024646184   -2.65261797687356    5.20846432030336
C         1.76913198996488    1.32143613890530    1.70882891264253
H         1.34849823905914    1.48712204831620    0.71384046402784
C         1.81072090941267    0.01487531760867    2.17509023026080
H         1.41368867538508   -0.75725294456559    1.51178684691993
C         2.77006443903180    2.37039132358395    2.12553373789697
H         2.49780048128112    3.31289865886843    1.65435735344924
H         3.74844101738881    2.08644348888116    1.72231190629667
C         2.87132517481417    2.55839106519254    3.65105290050014
H         3.71795157619186    1.98750134273661    4.03675096662502
H         3.08037225282233    3.60587570461085    3.87179356556491
C         1.62721193382391    2.12435330689072    4.40148677664396
H         1.09853237666799    2.90717745777729    4.94600448198821
C         1.50858817429888    0.82693821095657    4.86282953840050
H         0.90623269431690    0.65343695492980    5.75488145183342
C         2.60038498740089   -0.19193691303896    4.62197335683412
H         2.34478426572195   -1.12049349853977    5.12970169651467
H         3.51215359191780    0.17282699303801    5.10699145819269
C         2.88380724745608   -0.47357681722112    3.12839771867636
H         3.82705224530099   -0.00543089577723    2.83621487129641
H         3.00690588626851   -1.54853932414856    2.99124640185604
Cl       -1.65048961316198    1.56321167886064    4.58731623805666
N        -0.38891572263786   -1.00702073829305    3.51373585675200
N        -1.15069933260485    0.67525175705721    1.73246177465490
N        -0.45047463964593    3.07348859072708    2.47419905050412
O        -2.14119799344682    4.01111222773179    1.34441882903976
O        -1.39546291632751   -2.76347066063553    2.55740772629476
Ru        0.10977641331645    1.05970106312250    3.14191572947904

