75
CSD_code = USAQIP | q = 1 | S = 0 | Stoichiometry = C33H40OV(1+) | MND = 11
V         4.58387889165790    4.80231012457332   15.11796188147806
O         4.27518252243533    6.12266103351702   14.15229057582170
C         4.08976000264056    4.08083819251544   17.25528941771655
C         5.32681555705794    4.78112400625616   17.32099644764703
C         5.10913396985534    6.09692235717121   16.86503428699965
C         3.71676628756106    6.23438579695697   16.55375029352678
C         3.10041316114184    4.96658498484224   16.74682301820628
C         3.76041691654483    2.82628594682941   17.99443375454618
C         6.57113748605046    4.34999230263192   18.02474024793752
C         6.10124606548469    7.20992834272457   16.94894703144536
C         3.03078768540579    7.54811536884918   16.37722600642519
C         1.63493302767369    4.66157190780766   16.73445938144867
C         5.70242999628637    2.78998448732406   14.97721888405944
C         6.26996301443951    3.77771972942811   14.12581073024993
C         5.29497141718107    4.11138963798845   13.14505230065734
C         4.09799284360348    3.38555051179703   13.45164694248248
C         4.36085951273205    2.55829042706758   14.56180951806255
C         6.52075149674050    1.86862952594364   15.81998962933281
C         7.72401874822392    4.13244177058762   14.11046631943641
C         5.52787611831451    4.82150217178758   11.85317032571845
C         2.87452366558380    3.31495928040913   12.59840498447151
C         3.46527808878274    1.44111985181130   14.98557729191150
C         4.04149525356584    7.11156493463465   13.42857464626603
C         5.04796334055458    8.17958674605929   13.32308203511231
C         6.38514919073505    7.86703629624227   13.58865363373852
C         7.35622412733279    8.84582395458909   13.53192540710878
C         7.00745925735083   10.15364927644166   13.22794456617568
C         5.67945042658794   10.47966262123832   13.00071556324409
C         4.70024857315034    9.50531132030244   13.04978468235671
C         2.76376561218377    7.18375278401852   12.70244504786636
C         2.63218185996874    7.87314128463595   11.49401768909987
C         1.41986344101245    7.87664287780085   10.82997463448624
C         0.33138081436055    7.19398867181830   11.35029094107119
C         0.46323769824623    6.48071427438168   12.53276266730524
C         1.67083447300370    6.46699064818069   13.20040982170847
H         1.42322851942477    3.76034906604470   16.15824997491002
H         1.05568143306892    5.48159350757017   16.31609636100033
H         7.37968007501120    2.37192883951640   16.25482218008372
H         6.90018383692517    1.07144234614876   15.17476315806539
H         7.93798717601557    4.92796459888995   13.40019294030708
H         8.31238468631962    3.25918291234640   13.82210922038848
H         6.54134130753037    5.21042333066322   11.78462302912897
H         4.83212226778607    5.65240261914925   11.70566287217830
H         1.97518339656596    3.22455671455665   13.20596832335703
H         2.93040887652783    2.43143373549309   11.95796781591928
H         2.45135302080954    1.78854391030180   15.18331401798612
H         3.84418429242395    0.92595142743529   15.86267006819004
H         4.60093681268108    2.14043845715642   18.05368075973204
H         2.90667084109514    2.31291492724339   17.56107114748053
H         3.49300762510685    3.09997816274476   19.01881319937056
H         6.66498177036418    4.92410635271990   18.94912498489713
H         7.46227845648370    4.55133820431039   17.43059797936673
H         6.54665046588093    3.29714439067048   18.28771935105976
H         5.80211721249796    8.05821552950082   16.33661878624707
H         7.09048184768971    6.87987977736916   16.63476419809394
H         6.17987015240771    7.54838960881672   17.98486130702436
H         1.95528198249038    7.42879517833334   16.26674540058869
H         3.40393519735112    8.09781282821177   15.50850577829084
H         3.21632190300153    8.16807322362667   17.25599486675034
H         1.28625439532818    4.49230011714827   17.75492288007986
H         5.94274575808606    1.39593905729558   16.60923951755666
H         8.06379720449006    4.44983120791794   15.09659376949043
H         5.37511102814057    4.12202494774908   11.02947898352489
H         2.78160026659931    4.19107965792067   11.95984426783737
H         3.40342153503683    0.71581939587650   14.17140905402192
H         6.64222432470788    6.84463912520504   13.83486695970766
H         8.38754709287423    8.59420337878215   13.72712566476110
H         7.76642533640605   10.91878397583152   13.18142862959303
H         5.40319611699665   11.50112799859948   12.78980015107559
H         3.66491033707453    9.77692939288418   12.91089215209632
H         3.48432013661635    8.37279124213809   11.05905068348973
H         1.32622497565328    8.40991859952386    9.89671089413485
H        -0.61349353051209    7.20848447781580   10.83004946855642
H        -0.37920859621031    5.93584966594667   12.93073681417841
H         1.79015991980550    5.90654466138092   14.11883178436539

