61
CSD_code = USAQUB | q = 1 | S = 0 | Stoichiometry = C23H36OV(1+) | MND = 11
V         0.71617021097736    0.96492516041838    4.97240588952096
O         1.68976173973937    1.76271423792960    3.79333341392461
C         2.59999255940812   -0.18305614836204    5.40646979022513
C         2.66869513778991    1.09578208270898    6.03061990481397
C         1.61024835838725    1.18433679378890    6.97034773432888
C         0.92255606933246   -0.06344070963505    6.97255260135867
C         1.51240311501782   -0.88767328910732    5.96970207858481
C         3.57625728386171   -0.77194874885393    4.44347924543375
C         3.78204299473157    2.08209019750886    5.90921687522787
C         1.45820445462136    2.28528533271784    7.97022662014912
C         0.10041894482856   -0.55668324900107    8.11813345908374
C         1.25255023957779   -2.33602116698047    5.71434070829698
C        -0.98195131879870    2.34901179140946    4.52963511455531
C        -1.42159902253718    1.55586172865364    5.61050758483333
C        -1.43619416863675    0.19483589192505    5.18981082834062
C        -0.96301005547215    0.14297809327120    3.85172308184948
C        -0.72300627782512    1.48097130393733    3.42555702044370
C        -0.97955487637937    3.84244668096413    4.52041139441598
C        -2.02147858284972    2.12914533777408    6.85128668129600
C        -2.20212998002101   -0.91142783083209    5.83812554298595
C        -0.99211390295015   -1.05459643788190    2.95744425769423
C        -0.55406352745257    1.90394504010368    2.00364123765772
C         2.36258035568292    2.37295357704003    2.96936294470325
C         2.94663564205385    1.68543495429695    1.76856525524727
C         2.64126914800552    3.84181480779342    3.12019900600159
H         0.32436129069951   -2.66861109687133    6.17019937860515
H         2.06402703655320   -2.92771221261793    6.14278263001006
H        -0.49945608108924    4.23796359415884    3.62818646797902
H        -0.47481537259522    4.23834972122434    5.40228136654035
H        -2.21105684849066    1.37072775540314    7.60516544322699
H        -2.97881551204274    2.58960902025589    6.59752805547723
H        -2.39712294783810   -0.71662053395007    6.88790599720160
H        -1.70307823978779   -1.87234808728914    5.73799685215162
H        -0.14055593454589   -1.06075823143151    2.27653081121424
H        -1.90239751392063   -1.04506356545716    2.35459516504787
H         0.02128627485099    2.82547577955059    1.91584211890543
H        -1.53990229675018    2.08971885098127    1.57183401285865
H         4.03446421038105    1.73244465495697    1.80251935400561
H         2.63389160044311    2.18592805002818    0.85405980509608
H         2.26047091171846    4.38692859499050    2.25749969006438
H         4.19166729030523   -1.51047145835607    4.96121620831033
H         4.23934365834427   -0.01736868493982    4.02650835740746
H         3.06274128053016   -1.28632639013663    3.63074431276156
H         3.71381533283783    4.02336346072252    3.16201537275858
H         4.54178864678405    1.85332291447481    6.65981545807797
H         3.43223072971385    3.09714936216665    6.08972247243316
H         4.26113654341895    2.03712773202771    4.93195977842473
H         2.30048163161545    2.26951010906194    8.66444284963046
H         0.54626152821632    2.16922956151411    8.54918430795160
H         1.44765461450376    3.26219473210711    7.48487447258325
H        -0.42821425875635   -1.47404195004989    7.87913203071621
H        -0.61066386082021    0.18587874447951    8.47017105316976
H         0.77917624618655   -0.77429972006298    8.94687475778780
H         1.22015581271853   -2.54742954966878    4.64581568536044
H        -2.00800222439334    4.20845917593647    4.53993770575540
H        -1.38849401850245    2.90675578928928    7.27587844239620
H        -3.16719178435741   -0.99411012143954    5.33227004842451
H        -0.98502574311881   -1.97485244315675    3.53609093800396
H        -0.07249507286273    1.12659291613292    1.41322478980477
H         2.63489374602321    0.64315126641349    1.73886669657510
H         2.17305478293580    4.22414682796888    4.02542884230930

