71
CSD_code = USARAI | q = 1 | S = 0 | Stoichiometry = C26H42O2Sc(1+) | MND = 12
Sc        9.30870706996284    2.04654785059555    3.72374750452319
O         8.11706690200017    3.46146814930629    2.88261468812552
C        11.22369910779699    0.83739278883998    2.91652906644630
C        11.42234037696411    2.16752421384524    2.44792118744612
C        10.37118480772917    2.48227142408482    1.53800653877933
C         9.53293240896410    1.34342798329988    1.42532576419537
C        10.06349587395798    0.31527812351990    2.26772117096541
C        12.23954414541327    0.04668736906768    3.68905598531623
C        12.68252221772051    2.96257722290536    2.60082600319348
C        10.33630671764296    3.71411872614427    0.68395012016781
C         8.46649837763747    1.10785798720418    0.39693102117844
C         9.72569112553253   -1.13571732980816    2.09212808970918
C         7.38446604235199    4.32347792068674    2.40403887496636
C         6.29035219796015    3.99407001037330    1.43659796906549
C         7.54688870839221    5.77602283343331    2.74233773169076
H        13.06449633852946   -0.23302550182538    3.03040278831591
H        11.81196859387819   -0.86942703894044    4.08882853473291
H        12.65801676068476    0.62355240793815    4.51394084126585
H        13.25405192213909    2.63493701066991    3.46539855906431
H        12.48539317380337    4.03082083882983    2.68903524942806
H        13.30556269925892    2.81845832280229    1.71547328101824
H        11.03559874135890    3.60320178471346   -0.14741757796543
H        10.63438150829634    4.59721637111680    1.24858831725919
H         9.34666580447095    3.88479165498881    0.26508335099538
H         8.17471336848400    2.03348046509298   -0.09254996742164
H         7.58250829844792    0.63921267770842    0.83009688655286
H         8.84923792736653    0.43297293391194   -0.37160965926991
H         8.65135653195929   -1.30210283236948    2.04337863860736
H        10.14788313461757   -1.75123579324000    2.88037770551442
H        10.14931324082017   -1.47815284342101    1.14458886601900
H         6.26032477058056    2.92607862520025    1.23681077355255
H         6.44305863752625    4.53511093647249    0.50399037452750
H         5.32984841497023    4.31540847519599    1.83514186262327
H         6.58181358307667    6.26272359134280    2.85518176285887
H         8.06886788466733    6.27607247429682    1.92622347158388
H         8.13098840361017    5.89249488908702    3.65250647266009
O        10.50008683633353    3.46192710786935    4.56470029302207
C         7.39377043483715    0.83733063619128    4.53097003064478
C         7.19509443786108    2.16746104344666    4.99957291884885
C         8.24625596800300    2.48224478995759    5.90947525688942
C         9.08457341842328    1.34344596221475    6.02210821249623
C         8.55401920855922    0.31526464287846    5.17972146811659
C         6.37796019462426    0.04661120547488    3.75841224661302
C         5.93485260696129    2.96243240023375    4.84669310034892
C         8.28107970866993    3.71404776909303    6.76360930490455
C        10.15104642841601    1.10788025327628    7.05047166188052
C         8.89189741131918   -1.13571787354765    5.35528854808417
C        11.23296472369420    4.32368738881347    5.04333073096347
C        12.32738037334163    3.99387317575674    6.01029671937549
C        11.07095820035815    5.77625251913409    4.70506382288761
H         5.55295989182892   -0.23307016900888    4.41701883953170
H         6.80555761832467   -0.86951893089526    3.35869864694469
H         5.95954961993009    0.62345328484834    2.93347889562461
H         5.36343647644783    2.63492288705291    3.98199347343944
H         6.13188631846575    4.03071073835317    4.75873083061851
H         5.31172672816723    2.81806288594760    5.73194940468717
H         7.58181812838171    3.60304616292922    7.59499372774713
H         7.98294171357785    4.59716851554477    6.19904081480377
H         9.27072411868419    3.88474447186872    7.18245854823399
H        10.44273366840543    2.03348100520182    7.54005556623629
H        11.03508308861506    0.63938650584192    6.61723289865050
H         9.76840474985355    0.43285895705407    7.81894291964272
H         9.96624260480320   -1.30205782368832    5.40397696756214
H         8.46969107329509   -1.75123947380339    4.56704865186652
H         8.46833818720954   -1.47819024400895    6.30284323171320
H        12.35708477637519    2.92587218809224    6.21009220016911
H        12.17526286019410    4.53501843631407    6.94293281293069
H        13.28785203315824    4.31483061290866    5.61132351296229
H        12.03604655481506    6.26286887587151    4.59229343350103
H        10.54907172612715    6.27640143714672    5.52113509154382
H        10.48690229336794    5.89301393256510    3.79494296882286

