75
CSD_code = USARIQ | q = 1 | S = 0 | Stoichiometry = C33H40OV(1+) | MND = 11
V         2.03205839072141    9.15331355572781    4.62322149967630
O         2.15084326371348    8.80130481378373    2.99083095311315
C         3.87935088177261    9.99246049162911    5.57505252169143
C         4.31241590833444    9.22488444013364    4.47152093009740
C         3.90997675358406    7.87556883948113    4.68482530172159
C         3.21897536982637    7.80782254805291    5.91971916073133
C         3.25523145208603    9.10625415979580    6.50777580559605
C         4.29798790876002   11.40476273058687    5.83489183006358
C         5.23301583865496    9.67696617748315    3.38641862133112
C         4.35975893871311    6.70794454802171    3.87300922379646
C         2.82218958917674    6.53079512425756    6.58830974557886
C         3.15994369832700    9.36974783910077    7.97483759150738
C         0.68216924421389   10.66039899943835    5.83594255019020
C         0.55787651187559   10.78852257247159    4.43289845103976
C         0.02119668411603    9.55678421548425    3.92980204888256
C        -0.07918889634351    8.64632948475075    5.02132446883631
C         0.30308884673687    9.34261572697851    6.19967840375275
C         0.86849190200726   11.82704316133559    6.74848666430000
C         0.66098324577678   12.08603994904576    3.69809197404105
C        -0.62900308989615    9.37525022000093    2.59675284885106
C        -0.78961089291504    7.32934311767199    5.02336808951376
C        -0.05081871417317    8.86436193347134    7.56880409421261
C         2.18144474497740    8.53182213192739    1.77409748323194
C         2.25180198265520    9.62280383460208    0.79361176381530
C         2.74886885956553   10.86647616521788    1.20033654186949
C         2.79127314667922   11.92601342804809    0.31722927083053
C         2.32071716146424   11.77054995541431   -0.97862873309518
C         1.79012633264050   10.55396916385195   -1.37899058757472
C         1.74993717128991    9.48476255523626   -0.50428935943967
C         2.13004808654314    7.12446356715698    1.35021786787780
C         2.74415102592926    6.68006691801618    0.17646986920947
C         2.70291098312197    5.33978119803125   -0.16011524125436
C         2.05821798557068    4.42847676848602    0.66121283884110
C         1.47257701128733    4.85683255562104    1.84391602180549
C         1.51617000107937    6.19104072150068    2.19255361899495
H         2.53863385969837    8.63799800861173    8.48200041600082
H         2.79757852943875   10.36876500542244    8.20055050117129
H         1.67553998491629   12.47639057704384    6.41556680218868
H         1.05031203959536   11.52496948176035    7.77587543048454
H         0.70469753220281   11.93823572036487    2.62103561536690
H         1.54391601256335   12.64283724252221    4.01007954219517
H        -0.32202811049134   10.14735545683620    1.89375260129685
H        -1.71211801208564    9.44384831486106    2.72012019417791
H        -0.19951325453527    6.55879169804851    5.52016448642123
H        -1.02568891276737    7.00223958093748    4.01319082955373
H         0.22178764192027    7.82149750493078    7.71779489631026
H        -1.13610716606884    8.93132025453798    7.68099877999242
H         5.38487761874885   11.45042399815192    5.92553674625959
H         3.87147995248107   11.78039961264582    6.76047486656149
H         4.00652396134366   12.06494216666088    5.01682920704004
H         6.24569976155780    9.33942168595106    3.61851656487567
H         5.25302063622294   10.76121586217162    3.30413412035343
H         4.96141281620874    9.24983879102192    2.42016368492178
H         4.48437860196888    6.96864958872364    2.82305270462446
H         3.66822857936995    5.87166109608564    3.94846304262459
H         5.33074008321245    6.37554137720967    4.24824920452958
H         2.35724497127775    5.84604081005813    5.87905583302490
H         2.13386144338347    6.70497449946296    7.41138341784883
H         3.70849272381981    6.03808627141468    6.99334301247194
H         4.16751602757179    9.28895645684557    8.39220876275151
H        -0.04913910701994   12.42010876819857    6.73852747266912
H        -0.21284875570138   12.70209741720570    3.92177539015602
H        -0.40790840559000    8.40173933496158    2.15672821134564
H        -1.72961744420331    7.42516853347140    5.57086600782569
H         0.39697376803411    9.47041147669083    8.34999978394143
H         3.10691570438088   10.98021867346815    2.21554332598824
H         3.18875555253396   12.87754003710126    0.63612909740706
H         2.35531516288704   12.59841278536075   -1.66932006341129
H         1.39849498987209   10.43932651374988   -2.37782549712316
H         1.29691323156737    8.55571016361469   -0.81374720790395
H         3.28117318527596    7.37549181685512   -0.45035471126816
H         3.18128336526458    5.00393171717068   -1.06703298102139
H         2.02216346939585    3.38577967187182    0.38724536271773
H         0.98261885618435    4.14572495741972    2.49172734271586
H         1.07334177768995    6.53536345877334    3.11921306927514

