82
CSD_code = USAZAR | q = 0 | S = 0 | Stoichiometry = C41H35ClCuNOP2 | MND = 4
Cl        4.00860847157075   32.27898257940535    2.77917123446173
Cu        4.33525400017958   32.55277275043740    4.98672104506383
P         5.34565840331597   30.68205911598707    5.84107026181528
P         5.56083271522269   34.46290947840914    5.11074495745169
O         2.05906469358341   32.79326345439707    9.63506394946310
H         1.43081288761422   32.33668690312139   10.20964879654523
N         2.64117790063324   32.59005457893211    6.09633759143367
C         6.93919785331099   30.18948998832255    5.10893981457506
C         7.08913221972387   30.48272643291580    3.75670703769415
H         6.29811430017700   31.00994229794260    3.23871426147036
C         8.23749771241708   30.09689779213005    3.09119539010062
H         8.34902087670274   30.31703053095370    2.04063087158288
C         9.24151448932085   29.42938338268200    3.77248091457761
H        10.14366093786059   29.13485748152492    3.25621622463038
C         9.08806670452576   29.12886338794505    5.11641954524763
H         9.86755508286806   28.59777641786407    5.64383120186837
C         7.93547932830618   29.49549937484983    5.78647523206546
H         7.81302972577529   29.24229237388744    6.83003940153424
C         4.43870630277484   29.12664382640953    5.55436332629874
C         3.63429148782180   29.07787382771073    4.41984519230876
H         3.56631994193927   29.94908819078858    3.78036712635433
C         2.94564924086125   27.91847433164622    4.11184248159992
H         2.32147271226187   27.88215779021440    3.23127739578455
C         3.05914744129737   26.80681984508369    4.93034978409662
H         2.51856371243675   25.90181923697790    4.69347466869135
C         3.87507551997366   26.84911081255733    6.05018705689165
H         3.97440270431433   25.97613706367769    6.67963492892032
C         4.57101800807137   28.00216179052372    6.36269643912583
H         5.21463700362280   28.02899454527667    7.23119281083802
C         5.62244731347948   30.71703369872731    7.63151550424598
C         4.59018025896484   30.36745882464797    8.50068739894245
H         3.68113221573975   29.93915426756499    8.09855803519547
C         4.73166238353025   30.55688666049534    9.86208823138863
H         3.93363880474660   30.27022517075661   10.53196172693997
C         5.89303648308214   31.11561509904098   10.37123179876393
H         6.00054514643531   31.26220568769325   11.43576028679426
C         6.91084328072627   31.49585382142282    9.51105041778377
H         7.81177252451841   31.94492527803200    9.90390664448341
C         6.77363158772063   31.31110490369344    8.14775652071752
H         7.55823887029150   31.62343438570498    7.47057166341634
C         7.21940322366916   34.03481807046582    4.50694502748457
C         8.30472947889205   33.85248455590726    5.35721221275290
H         8.20595756252216   34.06612578072436    6.41315424701014
C         9.51267174869835   33.41062231906206    4.84804922896503
H        10.35466853769339   33.26987786126325    5.51091975861480
C         9.64697289591836   33.15215519658271    3.49436207281757
H        10.59430978974639   32.81270253138808    3.10170491571377
C         8.56371588892947   33.32165143056206    2.64670186861350
H         8.66418538349225   33.11552804854604    1.59127950069770
C         7.34926071815966   33.74543615106472    3.14933160313865
H         6.48899746132914   33.84233637598334    2.50114632601142
C         5.01412911630859   35.72390409507124    3.92304950437384
C         3.64787257846438   35.78423844214463    3.66987797106302
H         2.99149653678618   35.08063629655152    4.16650134059519
C         3.14926352961332   36.71111321575567    2.77304553869556
H         2.08936038634373   36.75083210287981    2.56948510177038
C         4.01337798770157   37.57895952309642    2.12620643979497
H         3.62701863977295   38.29911419205227    1.41966327010327
C         5.37607483447429   37.51916841464248    2.37393858981371
H         6.04808545209097   38.19320847295638    1.86221462538374
C         5.88132141077905   36.59430021850331    3.26878617131804
H         6.94602998259488   36.53675033527765    3.45291581244245
C         5.92582637577402   35.43277542949019    6.61492087244720
C         6.05023515028870   34.70417453704128    7.79557991979923
H         5.93674680139814   33.62715305834934    7.76303096321539
C         6.31589115292944   35.34351147463929    8.99111246556705
H         6.41474729621992   34.76644286396664    9.89943061700643
C         6.44271350751520   36.72311521859135    9.01913196801132
H         6.64646669160549   37.22882363056554    9.95149318089125
C         6.29746521799433   37.45488598134784    7.85158249771861
H         6.38690183860605   38.53131691217083    7.87629829159450
C         6.03693091182656   36.81722691572403    6.65138465948046
H         5.91921361684194   37.39390382484293    5.74520398621000
C         1.90825381029780   32.37933914484250    8.35537364631594
C         2.72177476296398   32.93819792279259    7.37300133119029
H         3.44956218108930   33.69203831883922    7.63813934952135
C         1.73447253066509   31.68799215198164    5.72629195157741
H         1.69726785862396   31.46505782929384    4.67062955933397
C         0.88775525714548   31.07669312803112    6.63155494956338
H         0.16914522098858   30.34542902150290    6.29721030141688
C         0.97451044616363   31.41976871714015    7.97166685664765
H         0.32662497792034   30.96162290888540    8.70764433481620

