40
CSD_code = USAZIY | q = 0 | S = 0 | Stoichiometry = C16H14MoN4O5 | MND = 6
C         0.33999293503238    8.10648997284176   12.91891468236252
H         0.58553396486123    8.75505668711148   13.74604417180248
C        -0.38311093926571    6.96207640063732   13.12185887580926
H        -0.71646778183872    6.69496197794105   14.11262905324429
C        -1.16036104554411    4.45052054863920    9.79875868577335
H        -1.19659938543823    4.02177538289551    8.79876384275691
H        -2.17940509727800    4.54301124072154   10.19090770877061
H        -0.57722068485805    3.79466207543739   10.45243304216947
Mo        2.34213701852811    8.72173624196594    8.53101040312998
O         3.28407450082198   10.35156689818908    8.05442569211029
O         0.85775765440848    7.87713669162610    9.31233493816910
N         2.03994737573754   10.01617633707107   10.30307147932693
O        -0.54719689289578    5.70820921813963    9.65064141124767
N         0.54421034608724   10.09752483611065    7.83695303864517
N         2.98312040910063   11.99808340535357   11.21790934704525
O         2.23223207310281    8.14537920574586    6.99284836748562
C         2.85583405708764   11.13016578971030   10.22360178748749
O         3.55092528957802    8.02180367220091    9.40886134798992
C         3.53622180269171   11.23848102994236    8.98216238007598
C         1.57115493622642    9.63361296265386   11.44635390438153
H         1.80250242217339   10.23293859905792   12.32958748775722
C        -0.28698168241738    6.43388293376685   10.77233385698612
C         0.47914087679524    7.61330548889168   10.53463511839757
C         0.78906120762699    8.45586757374751   11.62870579492418
C        -0.32214650041712   11.44621465502850    6.29353685148747
H        -0.58990779829428   12.26013301305706    5.65257158948583
N        -0.87007985422265   10.20200520484499    6.17000429305966
H        -1.53363959659106    9.91452237448308    5.46827272262186
C         3.81090489832946   13.01388274437129   11.04662713599843
H         3.88095182685565   13.69827350442042   11.88037220048736
C         4.42185935674092   12.31484276544016    8.83688196755211
H         4.97627181659589   12.42767668455674    7.91664034399824
C        -0.31824575042046    9.42202507556821    7.11422283561571
H        -0.54462319588109    8.38122750129362    7.25642328330900
C         0.55321618042153   11.36514584882841    7.33512704788890
H         1.17532421035679   12.13323419118483    7.75439000681791
C        -0.69869266010049    6.12048042646163   12.05105005630851
H        -1.26804120252165    5.22462561460481   12.24243886359681
C         4.55191819632511   13.20789880427642    9.88629681854722
H         5.21952671249098   14.05198642118584    9.80619756536833

