129
CSD_code = USEDUT | q = 0 | S = 0 | Stoichiometry = C62H62N4Zn | MND = 4
Zn        9.10194440653733    2.38834313439219   22.51082787743840
N         7.32320288104395    1.67906941152584   22.27364156346324
N        10.43018197818427    1.30983636762504   23.39830528426629
N         9.44849440784230    2.66807927365409   20.63490118856432
N         9.23841756857746    3.88982161991360   23.71614743349023
C        10.57063154581043    3.12409397222284   20.09164072207361
C        11.83720167547225    3.18145045009366   26.33832110161977
C         6.68989945189526    1.52237331027068   21.05159383525048
C         8.80662803314573    5.81643212126795   24.80794361255773
C        13.04029570779939    3.88384236334257   26.19233563380105
C         5.35457078260094    1.05671732543055   21.29818241881635
C        11.43268480026720    2.71117489653896   27.59426917598865
C        12.16741214805163    0.70360647613071   24.75018010198959
C         5.76821138039506   -0.07525257824818   16.88254592122208
C         4.95990003316871    2.21314943005744   16.85878190143471
C        10.98284848793492    2.93299395522232   25.15167422622590
C        10.87779259656132    0.12157604700702   23.01049099800892
C         7.51796670907702    5.26684382298405   22.62196276801802
C         5.67806184325804    3.81229163824965   18.56965545019579
C         6.54100361549602    0.20629453354849   18.05221705654571
C        11.95554932469920   -0.29854494902015   23.81905498390293
C        10.21901001920616    1.99754656541943   27.77246818647082
C        10.38101037392888    5.67072777918802   26.80013558552861
C        13.23312559875204    0.67460932201218   25.79140544651227
C        13.47836231449644    4.36711053028076   24.93195330471530
C         7.30962499314119    1.78562836300140   19.82184392213071
C        11.58981353117318    3.52385918831585   17.75865314659355
C         5.22759827435592    0.94415227250029   22.67199282902673
C        13.92960553968613   -1.35652506658899   22.71888239999352
C         6.46373759256532    1.33806652029958   23.22660725880581
C        12.25679195946657    2.95489818017348   28.73706823754861
C        10.05791308191676    3.93685318677168   24.83191515506143
C         5.73111222508695    2.50155158873773   18.02782009560150
C         9.26552345224693    2.54679229469631   18.36210217801165
C        12.72123944449111   -1.56889672732855   23.63336206082791
C        11.82842829395216    2.47259495260150   30.00047268623018
C         4.02590521003487    0.53816793996390   23.46325128570319
C         8.78461806926202    2.31627780123278   16.97070203022904
C         6.57684629270569   -2.35511007846029   16.90484195990015
C        14.65237907383017    5.04521464441328   24.81257258619413
C         8.50337708726829    4.99557735038645   23.70096473923825
C         9.84411286024252    1.55183406919588   29.00260539310909
C        10.50917413021176    3.06257215496634   18.68331698848965
C        10.65759113526852    1.79150447579548   30.13028670475051
C         4.15238040522864    4.49343164735863   16.83681848826011
C         7.32502533974912   -0.83446518908731   18.61409050157732
C         7.34164806064030   -2.07627148832735   18.05714786074394
C         8.59768766849150    2.29483902767174   19.60791719049559
C        13.45013208685152    3.65391484274129   28.58309874791315
C         4.17590705806642    3.24858386059184   16.28798481163201
C         6.92933493962274    6.90903574663494   26.03700826566004
C         4.26704046867211    0.75350784492358   20.32549625075167
C         3.10778145009678    1.73378755933564   23.72646671874192
C         4.99613195501303    0.93336722376016   16.31397471027262
C        10.26747523402650   -0.60966466686848   21.86966167074545
C         8.13588490256206    7.11569623509571   25.11880829902699
C        13.86082154976535    4.12235456493541   27.33882345937585
C         6.82937362368213    1.37715962614679   24.66672037617250
C         5.81379086998140   -1.38304880862369   16.33509336375768
C         9.78561357861300    5.15928478109679   25.53338549806708
C        11.70366241655983    3.60895166526490   20.92305506878100
C        15.46115361958332    5.28255157552401   25.94413924632702
C         4.91254562590973    4.77753842844868   17.99123698007327
C        15.07622854449331    4.83411536932381   27.16983018500185
C        11.35171522385174    4.96586728520445   17.30514925275746
C         6.50969477697107    1.49223806034234   18.60771827571910
C        11.19239135363484    1.72173866680027   24.47840448550834
H         7.61902389099896    4.52437998252187   21.83336779120070
H         7.67608036409309    6.25895879791128   22.20021499858009
H         6.50151503933026    5.22497570673040   23.01373375961164
H         6.26054691791192    4.02573052581233   19.45358598028024
H         9.59888110650539    1.81574165217302   26.90731728356769
H        11.45450873874214    5.82504159381987   26.70226459502730
H        10.21559733016062    4.97555350623259   27.62185224426802
H         9.92263634867177    6.62095188101723   27.06298024385742
H        12.81121662426536    0.71052326370941   26.79463450181849
H        13.91283713250687    1.51849424883872   25.68297331352405
H        13.81228558289286   -0.24078617562259   25.69782834384350
H        12.85774816616379    4.18264187914538   24.06783094295787
H        11.63698467040198    2.87311267661203   16.88216021172607
H        12.55271275247477    3.46013231290468   18.26957817243480
H        13.60629195404768   -1.00278802542395   21.74243729802871
H        14.47855018121438   -2.28662020022576   22.58617228937488
H        14.60072931801576   -0.61408687735766   23.14491061923382
H        12.06770365224555   -2.32469490500901   23.19256594259673
H        13.06062937421288   -1.94824616381646   24.59990606346378
H        12.45719643304424    2.66054218285068   30.85926711587667
H         4.34770105408983    0.11657342130602   24.41774980293158
H         3.46848261791521   -0.23563367714900   22.93030000084620
H         9.57795797592039    2.55263745782140   16.26560262236090
H         7.92733486959592    2.94740965342496   16.73970129442262
H         8.48873941624717    1.27985655520735   16.81804868420364
H         6.60542181847660   -3.34831881504411   16.48093817989299
H        14.97697780230434    5.40864321165185   23.84856976166956
H         8.91839838762915    1.00949523739024   29.12768357865263
H        10.33917895673691    1.42796120166440   31.09643657403224
H         3.55210538556226    5.27577172087911   16.39564121575964
H         7.91056094314058   -0.61759974208632   19.49490848180636
H         7.94220112528021   -2.86134750318198   18.49266704048945
H        14.07168761823336    3.83671782922970   29.44873932094353
H         3.59603049971485    3.02259245411658   15.40430544897365
H         6.20388558651394    6.25054499675554   25.56456446765503
H         6.44512035141287    7.85904482846709   26.25391242662469
H         7.24073314909421    6.45484546103899   26.97498040746558
H         3.37684025397403    0.43170397397834   20.86041444183205
H         4.55689899000943   -0.03908798068420   19.63750467336234
H         4.00954358164487    1.63212437461255   19.73575451169180
H         3.64034569457388    2.50444996570493   24.27936619629828
H         2.23854943718052    1.42981823185104   24.30618101924485
H         2.76687818898958    2.16366541864741   22.78734225570888
H         4.41209688534794    0.71775708390707   15.42995339851388
H         9.33297290428279   -0.13203286353168   21.58396718881685
H        10.07076883803684   -1.64661673367328   22.13932838151057
H        10.93863563690029   -0.60508629818566   21.01023862633599
H         7.80240133299110    7.58201660122923   24.18931432564160
H         8.84195466607678    7.79848986522364   25.59692390028554
H         7.87456750757914    1.65736959134070   24.77622482689718
H         6.67381276188605    0.40086213720620   25.12561941343731
H         6.21290272880513    2.10163788156921   25.19859871304218
H         5.22601995037642   -1.58799149652665   15.45150804273552
H        11.37483755958878    3.74356207327271   21.95110063603493
H        12.08379256131742    4.55509344505682   20.54149024401709
H        12.51958529914113    2.88492653894297   20.91139421776560
H        16.38875141677666    5.82320207108575   25.82471851536033
H         4.87894883678098    5.77217829397406   18.41117051488012
H        15.69046066422694    5.01080065929577   28.04144070517307
H        10.40231162759631    5.04564339432190   16.78071906741003
H        12.14661483416476    5.29478856692351   16.63875888055091
H        11.32119402284651    5.63255926206309   18.16420914053831

