93
CSD_code = USEFIJ | q = 0 | S = 0 | Stoichiometry = C50H38N4Zn | MND = 4
Zn       -0.09250049460996    3.00297079412388    9.01839141780118
N        -0.80582465400692    4.80414781009064    9.12395759738456
N        -1.36531006812902    1.67942754290453    8.40721558296106
N         0.44132652580758    2.81843050161034   10.86972514128767
N         1.30255309350197    2.66210024054329    7.71150566086063
C         0.13114953409726   -0.11906540974077    5.46037660927684
C         0.05960994116908    0.86164671378832    6.57296539914954
C        -0.36871649379025    5.04667883511081   11.53770639465622
C        -1.11161037498263    0.85452057983026    7.33040632044227
C        -0.85170227651583    5.50636742929424   10.31241870572606
C         1.17334269546453    1.68377692349534    6.74464744240479
C         1.23423433975980   -1.74746368585477    6.94676059373105
C        -2.23256675104930    0.00315150500864    7.13797749567518
C        -0.51188346180393    5.96982860130030   12.69201734781197
C         0.22954207494854    3.81435817145662   11.80150631184858
C         0.36619294721706    7.77242845171300   14.08890893959028
C         0.71126692298374   -1.37388727816770    5.68159285489138
C         2.35920335878751    1.66211526082034    5.96211029366507
C         0.78119465141695   -2.31496972998331    4.60775179886277
C         0.27063941919629   -1.96835659408967    3.36043588976951
C         1.37311261824919   -3.58135731949252    4.84995602139107
C        -0.38133512574201    0.22264624561509    4.20316544187995
C        -0.30849338800204   -0.72343045448914    3.13385382607935
C        -1.79506251618665    6.79326745048481    8.73834078613875
C         1.79396326930494   -2.97308061226688    7.13743008484793
C         1.40885593082957    8.69515934348362   14.36129306879720
C         1.21436494546701    2.10385104448863   12.86300297425873
C        -1.79849988184992    6.79874476827690   14.59719501743028
C        -0.78158630797181    7.70776117444983   14.87311423588631
C         0.71547270021614    3.36796796492271   13.05963537711044
C        -1.47264198019570    6.76155944450315   10.07224366065451
C        -2.57290706695978    1.36985219867778    8.86985130213422
C         2.49703400045069    3.22282223339324    7.55220041974372
C         2.97665483940899    4.31866490216518    8.43326634477564
C        -2.71240228822576    4.99177164863790   13.21968344289176
C        -1.66413280226550    5.91064108696054   13.48503579662510
C        -3.95600609810686    5.82861625842351   15.10293882336217
C         3.18765109636700    2.62891783139046    6.47409275033777
C         0.50716411127687    6.88696283472887   12.97537157921563
C        -0.97293687461630    1.48762536285964    3.95101096068521
C        -1.36635854233545    5.56616529247637    8.18992807537600
C        -1.50408052394349    5.10551721148934    6.78391274526267
C        -3.14742896804088    0.33190396066225    8.10772755780856
C         1.02506434836937    1.80260521885275   11.49868370298065
C        -0.83216731398339   -0.35992072152885    1.86640727113588
C         2.66281751262976    7.86785408888753   12.48450080377245
C         1.86527962292372   -3.90140408376076    6.07727045410015
C         1.68582981007057    6.96776745581757   12.18936943512137
C        -1.46358470680127    1.79694719563018    2.72001205000528
C        -2.97284274333100    6.72422813840524   15.38976448223404
C         1.39358724026104    0.55400863880203   10.78108642558791
C         2.52369552076380    8.74238926749380   13.58296166124038
C        -3.15809070843661    2.06844135540794   10.04431735646451
C        -3.82324504745901    4.95277462402731   14.00471585437736
C        -1.39312656866782    0.86302148149572    1.66474582383091
H         1.17829493492602   -1.03516292893151    7.75663156843297
H        -2.32390957653288   -0.74527532341503    6.37436311408360
H         2.54809210937491    1.00552815011468    5.13456290544198
H         0.32512081893485   -2.68182733734582    2.54973845916299
H         1.42286233680856   -4.28678176558439    4.03258383823566
H        -2.27683170840075    7.58617877743614    8.19915273929941
H         2.18944899554148   -3.24767900498926    8.10439417280534
H         1.29436004706168    9.36095512237110   15.20499270006880
H         1.66285155527145    1.45639278204724   13.59194660693122
H        -0.88543955847593    8.37823525516129   15.71509176483059
H         0.68722264128873    3.92902215207745   13.97397549903092
H        -1.64579807811374    7.52240349492267   10.80896207105480
H         3.79312376473477    3.96686532777432    9.06470550296990
H         2.16547845759754    4.66620642731864    9.07053028449808
H         3.34873681907682    5.15078066775791    7.83718501370521
H        -2.60817416361334    4.32244450223387   12.37866972675466
H        -4.84686793924586    5.77888728519350   15.71191344817843
H         4.16983996195072    2.89770150620781    6.13566545889947
H        -1.02658192465446    2.20056804002330    4.76053162379026
H        -2.46507263013807    4.60750475281091    6.64450344152760
H        -0.71461230731405    4.39489938024219    6.54402906467451
H        -1.45549194685107    5.94918457545414    6.09878923826973
H        -4.11446252410273   -0.10414547469522    8.27032251607050
H        -0.77369802209968   -1.08115369358333    1.06352965413269
H         3.55603086326182    7.92140766957327   11.87945001415961
H         2.31443235214011   -4.86806534736310    6.25271257418491
H         1.79047918707049    6.29688618223638   11.34942317810975
H        -1.91241126586067    2.76258077560007    2.53855790525980
H        -3.06630701152904    7.39875756025128   16.22910352148880
H         2.12460391169665    0.76997467978113   10.00131409530660
H         0.51429902494307    0.12253056823188   10.30195884890281
H         1.81580929004765   -0.17224321514536   11.47092431119542
H         3.31269107436911    9.44833000636515   13.79762056513576
H        -3.16327917107364    3.14574379531171    9.87778688213293
H        -2.55922071280193    1.87189416151479   10.93452531065762
H        -4.17558926270458    1.72961693902418   10.22198673778438
H        -4.61557143974254    4.24945476129403   13.79397876462147
H        -1.78951794577477    1.13132959808997    0.69632346687163

