49
CSD_code = USEGOP | q = 0 | S = 0 | Stoichiometry = C20H24Cl2N2Ti | MND = 12
Ti        5.36484832268409    8.24547415733110   10.50794389989091
Cl        4.62172587141261    9.69151620334896    8.99106088953023
Cl        3.30974121533139    7.64792599648669   11.11200054267772
C         5.09425046253668    6.39335742254335    8.94303141392233
C         5.59662281726442    5.91368594397994   10.18320447755334
H         5.13867741417359    5.15346427706358   10.80161246084815
C         6.87294692165456    6.46735229064619   10.39381456903619
H         7.56743073705264    6.16815383369889   11.16682963168454
C         7.15532780808854    7.33773872535118    9.31411735393151
H         8.09996001257162    7.82686808599149    9.11208251708708
C         6.07176415785668    7.27006261348953    8.41704238609615
H         6.04720021956688    7.74404851915424    7.44432971936749
C         3.89641743656512    5.87429349534274    8.17746814794041
C         3.07324755968448    4.88758995140770    9.01057272183870
H         3.66467754185201    4.00815774588297    9.25599728211851
H         2.20490200821082    4.56399776476787    8.44037703585815
H         2.72391186341844    5.35077689415462    9.93087353922953
C         4.42592792159259    5.15356656865726    6.92557606195924
H         5.10746738692479    4.35559372942058    7.21259383326149
H         4.95818432501574    5.84033514435395    6.27153416504348
H         3.59791604911927    4.72102832550602    6.36838636887049
C         2.98692824533567    7.04994757494528    7.74157732928032
H         2.57081201969647    7.54420888783841    8.62705757018720
H         3.55733582892855    7.78903671827327    7.17040744677791
C         1.89519216216763    6.59860240255026    6.92170025344129
N         1.03582919204747    6.23253258024790    6.26162831311028
C         5.26176312310371   10.20889025639615   11.95447388355786
C         6.51555707692868   10.16095533391393   11.28658665595776
H         6.92775881699159   10.93611550030429   10.65472731510310
C         7.20817799201613    9.01372659845893   11.71553016299018
H         8.24581492946322    8.79214856004483   11.50667579171376
C         6.37182225877178    8.30866838857394   12.61369602467375
H         6.64979089570924    7.45069187174999   13.21285043299527
C         5.19015079660235    9.05795039686255   12.77366403621992
H         4.40524413185053    8.82625715691710   13.48194975735858
C         4.30185266890793   11.37717488217386   12.01830250808044
C         4.70364310284981   12.49534799695666   11.05216546693054
H         5.67701942497754   12.90050352386573   11.32004407421717
H         3.97492191207379   13.30166429576957   11.10343847776764
H         4.73829842239047   12.13125281788182   10.02750874528432
C         4.33183625275397   11.92228677471888   13.45667572755900
H         3.98675180860434   11.17545114701244   14.16795895225472
H         3.68780372028025   12.79527770938062   13.53603871933082
H         5.34528376673118   12.21105323066472   13.72718775464599
C         2.86383784002719   10.91020380756829   11.68145262475771
H         2.82310774493535   10.55406586033378   10.64552847041938
H         2.55914660373110   10.09089592805727   12.33995498215711
C         1.91257791779263   11.97847513479818   11.82917717803718
N         1.16259329175558   12.83252697515253   11.95599232742563

