36
CSD_code = USEHEG | q = 0 | S = 0 | Stoichiometry = C15H17Cl2NTi | MND = 12
Ti        2.21017417918995    8.52842124182356    0.39532541711137
Cl        1.64281021693447   10.63822151275342    0.79780533219792
Cl        4.38145024784002    9.01391846800627    0.50143764698038
C         2.05573678851786    8.33103744178623    2.80797763676708
C         2.90958668817330    7.30664724241778    2.33428190414395
H         3.93155624064565    7.13270733699580    2.64423056551941
C         2.17641391971428    6.46140677985994    1.47751219166481
H         2.53408580993948    5.52190754229812    1.07498631801709
C         0.84596542001094    6.94181845317694    1.43565589405303
H        -0.00118962369985    6.43184178812850    0.99681066966858
C         0.77878383471121    8.10528788694523    2.22601683473590
H        -0.12629315646554    8.65408298395809    2.44939834736185
C         2.39356055880888    9.29343411253851    3.92582560417581
C         1.22738317737185   10.23747504677170    4.23152054200390
H         0.94732094829247   10.80416144119455    3.34621624813655
H         1.51960661026530   10.93877649871617    5.01035823685328
H         0.36470144642771    9.67738271840903    4.58556789164509
C         2.70582383379799    8.45598815285293    5.17801671071377
H         2.90920941484433    9.11161597802505    6.02178125828620
H         3.57395745901243    7.82072029073454    5.01909807413644
H         1.85728954998783    7.82173840778870    5.42560876421001
C         3.63853856902216   10.13373644369292    3.55015251922846
H         4.47866450070760    9.48357642723338    3.28837621884398
H         3.40868892026299   10.76316938674449    2.68309716084557
C         4.05037292595325   10.98550426217452    4.63200941703619
N         4.37492801952013   11.65566462510894    5.50035087638814
C         2.59269529802460    9.03617352536199   -1.88959346362617
H         3.30815047925957    9.77115376892462   -2.23742767910915
C         1.21931012463572    9.25648707548258   -1.68086500596079
H         0.69414435718259   10.18850340219799   -1.84541255869068
C         0.62956194800368    8.03194578941432   -1.31240458186233
H        -0.43241076830792    7.86235010919925   -1.19017383391902
C         1.63393635355340    7.03666848285639   -1.35487316335145
H         1.47138750057156    5.97089357867673   -1.27345137625577
C         2.85005116096876    7.65796426638778   -1.68678826449460
H         3.79274704632055    7.15891753136281   -1.87362835345485

