101
CSD_code = USEJIN | q = 0 | S = 0 | Stoichiometry = C51H40IrN3O6 | MND = 6
Ir        4.08742208462956    4.91784796529833    7.73373391755008
N         5.66895708739822   13.12289379927553    6.89147902226561
N         3.49417550712532    5.40125559557962    5.87778484721914
N         4.61791450003401    4.64942736431145    9.64137715173482
O         4.51342970382187    7.03825512397815    7.75274555960385
O         2.19746160314539    5.48391630736997    8.65488301666664
O         8.17484409243012    4.98006340142429    5.24665266446050
O         7.09813726875998    6.08145624605798    3.68291498951447
O         2.44117433843766    0.53230089035011    8.76441364337873
O         2.84188457919187    0.96756651319720   10.87852762170534
C         5.29133257077209   11.81149132079911    7.02827558194599
C         5.65450601073371   10.69185196247598    6.28868966140897
H         6.34142905120361   10.75650171343506    5.45897140862715
C         5.11774040783236    9.47634229238365    6.64880449757155
H         5.38835353601260    8.58673685773523    6.09864531485608
C         4.21724696097685    9.34423899466057    7.71704562058954
C         3.85807654832343   10.46036718386834    8.45968800603152
H         3.19932450551423   10.37862886107217    9.31066723612272
C         4.39160369875534   11.69247445837192    8.11741769555871
C         4.23803206283090   13.01199003864236    8.66139407447284
C         3.50050571065344   13.53366233324411    9.71572833360415
H         2.88025731821778   12.88987044774079   10.32131955533555
C         3.57778497837809   14.88817926276946    9.97030186393715
H         3.01306756853826   15.31475453627283   10.78592185299470
C         4.37549423796009   15.71952514991919    9.18705920863313
H         4.41365897490921   16.77588990346454    9.40920268999395
C         5.11952994918720   15.22357105650249    8.13383404907427
H         5.73162180243389   15.88241999122209    7.53646308923350
C         5.04911139578866   13.86194782446037    7.87291487112262
C         6.63723781955225   13.64332390154362    5.96446668720488
H         6.71371269013808   12.95472514176258    5.12013096510236
H         6.27432209273599   14.60539587101676    5.58765669346618
C         8.01489278506621   13.83104164558831    6.61195743666317
H         8.66709486315247   14.34015257586068    5.89923410761756
H         7.90967900198598   14.47217493912443    7.49000055796739
C         8.64944945996285   12.50701318316257    7.03037799440280
H         8.77939961393716   11.87252787171377    6.15074921653116
H         7.98300570280080   11.98578504012811    7.72089506646849
C        10.00046793837013   12.72179073306848    7.70073752692927
H        10.68963578187209   13.22116642935910    7.02295079144202
H        10.43568385162432   11.76921789180337    7.99229417951946
H         9.89148095370574   13.33621974853331    8.59196013918825
C         3.71611937311689    7.97888649781621    8.02082501859833
C         2.43210430238124    7.84926616736780    8.56959415253692
H         1.88658451935817    8.75926082957440    8.75832264334620
C         1.79157422865969    6.65181510284716    8.88944985645994
C         0.44154396809936    6.74434464676799    9.58640455334165
H         0.27474682721174    7.75396200549188    9.96306301032141
H         0.45273680964230    6.04892216406328   10.42913328142632
C        -0.69331929225625    6.34316911097774    8.63528083825733
H        -0.51483284692870    5.33319432659111    8.26040758997987
H        -1.62952983901824    6.33025437435901    9.20395934348256
C        -0.84031176668327    7.30217457087913    7.49776449424218
H        -0.79535481677674    8.34969451869922    7.76759547269963
C        -1.03676329726515    6.95390157081606    6.24020316439387
H        -1.09801492127628    5.91988378232718    5.93968438468105
H        -1.16360415600854    7.68642112970887    5.46087832734482
C         7.01620739785851    5.48290012209864    4.73254694436544
C         5.81067866832914    5.27134852986757    5.51913211996516
C         5.81608774199088    4.62629288518156    6.74537231388866
C         7.05973035708889    4.03807540125331    7.16868735882478
C         8.20787423877524    4.25657059293512    6.38598541746954
C         9.44294077506110    3.72817913133487    6.75858023771041
H        10.29781786712237    3.92909889950764    6.13241546021519
C         9.54375676498842    2.95998744034725    7.89722304800879
H        10.49914410076730    2.54811095338825    8.18435282506824
C         8.41260312796376    2.70377859829650    8.66786245400600
H         8.49253417650515    2.08440825551338    9.54817143764266
C         7.19510885907026    3.23288738433133    8.30931725739500
H         6.31523570950075    3.01865124185030    8.89278697623496
C         4.51731965890164    5.74304419910738    5.05723543102832
C         4.27735136870448    6.45247971786194    3.87968982082231
H         5.11385237552947    6.72217005795786    3.25643634764000
C         2.98322866833153    6.79815951654294    3.54680475928450
H         2.78309950360469    7.35546914954408    2.64428289432865
C         1.94471938781918    6.41725053577969    4.38696062071644
H         0.91964551078944    6.65903810014158    4.16016213128966
C         2.25006575676689    5.72420163803060    5.54161216388042
H         1.47235799724182    5.41758328873221    6.22665295150587
C         2.94063104769339    1.35090840794550    9.73450611506985
C         3.51896383084611    2.60922886420745    9.28747250573263
C         3.58063736691403    2.97991196827435    7.95332692936824
C         3.12561842513776    2.01485163393730    6.98714918277653
C         2.54811342150526    0.81853825887464    7.44964610405398
C         2.05987194986846   -0.13495561859454    6.55726278471648
H         1.61574102196147   -1.03291716144530    6.95674671646143
C         2.16298009936023    0.08027258468097    5.20084158632809
H         1.78678036172459   -0.65861116008212    4.50989625141455
C         2.76376049635023    1.24192598882361    4.72233989428566
H         2.86017662787179    1.39631223153870    3.65838803929088
C         3.23601017378538    2.18940728275802    5.59975530395009
H         3.71686602492366    3.08178636179764    5.23400965572724
C         4.07582743187369    3.55918076827357   10.23385927205257
C         4.11869048773214    3.41065832747360   11.62105835949162
H         3.66750384241743    2.53826878929286   12.06396041051528
C         4.73036036368155    4.38118378558897   12.38871040806863
H         4.76726677036968    4.28326350517638   13.46305743726837
C         5.29928928644737    5.48263358965594   11.76073435082785
H         5.79396696021405    6.25720767212629   12.32443453499852
C         5.21452012530425    5.57458128385526   10.38541845088249
H         5.63774417009262    6.41666382941165    9.85492019664563

