49
CSD_code = USEJOT | q = 0 | S = 0 | Stoichiometry = C22H20N3O3V | MND = 5
V        12.06193465275937    6.61600921495385    3.63581144172033
O        13.25735205475065    5.66572335154341    3.45741983250174
O        10.78726540350530    5.89143214128041    4.10173946317653
O        12.58668910812793    7.54289103293980    5.03448496267480
N        11.64268527137417    6.30037345846421    1.67705815458746
N        11.62928854171902    8.57782228040769    2.87577821064210
N        11.38239222528685    9.35891187962967    9.22521014283205
C        11.61473512169972    5.09814534025883    1.15470061887946
H        11.69101083266528    4.27583629977700    1.85623067007362
C        11.50361674910213    4.88901335347906   -0.22977742185276
H        11.48506828831139    3.88042168048137   -0.61159592842569
C        11.42926334585195    5.96443372665060   -1.07691280712436
H        11.35568004063300    5.83387115701183   -2.14709008087328
C        11.45190923806619    7.26680410213836   -0.53811058397128
C        11.39589732055026    8.45228874976151   -1.29887040628274
H        11.33139904430110    8.38393214866120   -2.37401454514865
C        11.43876330684131    9.67216805387052   -0.67335346300759
H        11.41324800928616   10.57731922977927   -1.26311326495524
C        11.51603973275450    9.78341428641415    0.71843477740837
H        11.56869394938369   10.76606128804936    1.16495226080362
C        11.55748933396527    8.64607545826997    1.51018318659859
C        11.55327783111837    7.37103486169808    0.87240990851064
C        11.20282781423452    9.54415775933145    3.64266137091270
H        10.71745159661702   10.41538380005173    3.18798947743951
C        11.28461311403156    9.51974211103790    5.04091818403452
C        10.70620718759514   10.53578988711338    5.83178582403265
H        10.20603298528270   11.35422258574738    5.33067441631378
C        10.73333027264062   10.50653498267963    7.19492091477359
C        10.07228120604806   11.59691233610680    7.99389364744901
H        10.15156840403791   12.54623605280090    7.46118119775094
H         9.00639296675705   11.37198524696456    8.10678004252579
C        10.71506887595567   11.69577064832280    9.36925170552273
H        11.75627956198766   12.00760213886165    9.26778963089306
H        10.19441004650519   12.42348177479450    9.99259810203183
C        10.66340730705036   10.32258674798384   10.02302473217275
H        11.12753855648479   10.35810995712655   11.01372757896870
H         9.61498776946251   10.01364334322025   10.15389307614880
C        11.83100499800993    8.15593590930897    9.88820305868365
H        12.05495843375434    8.40433285180698   10.92966804381995
H        11.03616483191795    7.39674018439604    9.88253858430600
C        13.06984488376020    7.60340292035772    9.19443291627056
H        13.42860559802355    6.72052248257924    9.72320420426894
H        13.85564147657919    8.36131015853094    9.21454425228132
C        12.71275940382508    7.26776801755797    7.75510444246960
H        12.06836260556340    6.38255132182921    7.71055911940897
H        13.60483887750947    7.03210479362158    7.16847465044024
C        11.37009173494146    9.41756241667915    7.86566886392376
C        12.00093669825571    8.42607645400446    7.11012831670464
C        11.97129339112411    8.44835002166246    5.70580851768473

