82
CSD_code = USESES | q = 1 | S = 0 | Stoichiometry = C42H34ClNOP2Rh(1+) | MND = 4
Rh       10.54408098134034    7.30922752683442    8.51679361568593
Cl        5.84289705739887    7.98247140356060   11.29570799164455
P        11.49513528617314    6.61535140752777   10.48703668606598
P         9.45690793971540    8.09690033111036    6.65660958912046
O        13.15553144454265    8.37055628537825    7.54531823676395
N         8.84345740433703    6.61150165527077    9.14881474919771
C        12.15644912044027    7.96232177497649    7.91715930561115
C         8.04510399222719    7.38531326547667    9.87682745484297
H         8.37630639124929    8.39729504325473   10.08502917009690
C         6.82548899257884    6.93334678956785   10.36145260394370
C         6.42245916775559    5.63340359098579   10.07937697881319
H         5.47992946239099    5.25992754414048   10.44522610730580
C         7.26635290600781    4.84145761581164    9.31839725103400
H         6.99408225183370    3.82704893166029    9.07485077220239
C         8.46678618918825    5.36402729335236    8.87210051025229
H         9.15178044612510    4.77022423638812    8.27424760795814
C        12.46818809662348    5.08819300117494   10.41727779937454
C        12.83249302948765    4.38217422260811   11.56117667902411
H        12.50177143081397    4.72157336356098   12.53358052033360
C        13.60249509270380    3.23948037564091   11.44378054918344
H        13.88912995614030    2.69289556116019   12.32945179690556
C        14.00565338040977    2.79450922363503   10.19383805250834
H        14.60810792036818    1.90318692687873   10.10990890018054
C        13.63135793192592    3.48582890290568    9.05262273583978
H        13.93945319587753    3.13227745512888    8.08032595791364
C        12.86233936345838    4.62963736563724    9.16406455063158
H        12.55554950389477    5.18459186948169    8.28032173117750
C        12.59995965302920    7.87633811204478   11.19062116282345
C        13.74318454386609    7.59646058876695   11.92756441976088
H        14.04105970648278    6.57354443483886   12.10476179006831
C        14.51144080208365    8.63771570798564   12.42043788659049
H        15.40285310806149    8.42044567327394   12.98890255010216
C        14.14469574268010    9.95232450624068   12.18467326137712
H        14.74950641763992   10.75788332041714   12.57146301766040
C        13.00760334885262   10.23596420116054   11.44344599536563
H        12.72677226757686   11.26090493777952   11.25302133143894
C        12.24205324990922    9.20089594837926   10.94387350780358
H        11.35379540303113    9.40239280281202   10.34652329453437
C        10.29995399320036    6.29917488367755   11.82598264464594
C         9.90284683284180    7.31493684759379   12.68955885061586
H        10.39927466172339    8.27488664285857   12.65554684262212
C         8.88644803570995    7.09091336113314   13.60130588300532
H         8.58878714884627    7.87883864071917   14.27637854840813
C         8.25128919371578    5.86099987681612   13.64790475650095
H         7.45719307527169    5.68991231740831   14.35815022202062
C         8.64006497316152    4.84724508514207   12.78617143571246
H         8.15123108261628    3.88535986341478   12.82597949062348
C         9.65588468833221    5.06439998225313   11.87485267128011
H         9.96415006873137    4.27299057423073   11.20366118858142
C         9.57016969173208    7.01310743845777    5.20846166307532
C         8.73856391874578    7.15036011542072    4.09992724688200
H         7.96649420686847    7.90794267789840    4.09430526662947
C         8.89447750486818    6.30234964824733    3.01863034366577
H         8.25351933316746    6.40940681396098    2.15664607883650
C         9.86869545140602    5.31575988178493    3.03950843192362
H         9.98549667404144    4.65873426115886    2.19149995902504
C        10.68658267676730    5.16538979996525    4.14815317644180
H        11.43765659434793    4.39016145162269    4.16519015233020
C        10.53618899619136    6.01157661396803    5.23131096862109
H        11.16557956132977    5.90846281378824    6.11418205047405
C        10.04154161571067    9.73004614756747    6.11259774106136
C        10.11436143902122   10.13590380219722    4.78649660308779
H         9.82997997996891    9.46093562425772    3.99282234610661
C        10.57196043681048   11.40730784358058    4.48409483916243
H        10.63324584529432   11.72095297542477    3.45314184173340
C        10.95393593437467   12.27385292853751    5.49473577812396
H        11.31025998059672   13.26264525142383    5.25054913035641
C        10.89019244524405   11.86955468035899    6.81954903779569
H        11.19700766870617   12.54173195348925    7.60667864639331
C        10.44120819727566   10.60003292071485    7.12587831569913
H        10.40051040008500   10.25907877893170    8.15841290996360
C         7.66216752711697    8.33340959477829    6.86852810845167
C         7.14594210214632    9.54537054152363    7.31564656390768
H         7.79835976936276   10.40075356532755    7.42402644580078
C         5.79754213672037    9.65959961189344    7.60430964142928
H         5.39970540724905   10.60502377601194    7.94058531274507
C         4.95995352948946    8.56551612266512    7.46366396650402
H         3.90933554927835    8.65675497336759    7.69206218534196
C         5.47045342676938    7.35441373658398    7.02326539634602
H         4.81820167069738    6.50198661050461    6.90604299665975
C         6.81561000762390    7.23506491200973    6.73044098147312
H         7.21456438860554    6.29126086064281    6.38137721878812

