118
CSD_code = USESUI | q = 1 | S = 0 | Stoichiometry = C42H71NOP2Rh(1+) | MND = 4
Rh        2.72874904491810   11.31261727489271   17.94747171044376
P         2.71969919655156   11.16974711835939   15.61904553615895
O        -0.16348909082682   10.61322840292126   17.94771704046498
N         4.55159911588541   12.03460560950207   17.94757326978753
C         0.96456974955054   10.81163782542677   17.94697278878268
C         4.59500347051406   13.36847468790991   17.94752222069148
H         3.63868912711718   13.88749634070314   17.94749358186224
C         5.78153385010314   14.07926597157158   17.94748460364896
H         5.76516819711607   15.15710413774188   17.94749484557953
C         6.98097286359782   13.38204281013450   17.94748404203138
H         7.92420517731363   13.90505899399355   17.94750302529691
C         6.93515667749916   11.99655358600279   17.94750486155580
H         7.83972447992887   11.40969081181633   17.94750611252447
C         5.70373666323093   11.36436393003952   17.94754532182036
H         5.64078204599813   10.28325188060252   17.94748616815389
C         2.73992698720672    9.38672883951102   15.08780236782914
H         2.79356168858300    9.33724160661505   13.99529746165450
C         3.98417401108528    8.74688809314241   15.71005191283282
H         4.88763933013667    9.27483830001045   15.39628375596865
H         3.89408611208003    8.84002912843942   16.80186922922083
C         4.09987646176858    7.27371103224476   15.33147136012877
H         4.22344690292476    7.18823036963182   14.24958051218262
H         4.98440069770939    6.83969319447993   15.80170702664948
C         2.85200887804208    6.51059920333954   15.76008329641233
H         2.92783532180604    5.46797739097215   15.45003968851894
H         2.77058215594106    6.52933915945080   16.84931368862953
C         1.60870861396289    7.14755604904460   15.15049823399358
H         0.71621916960782    6.61565374632091   15.48358510086147
H         1.65599941524993    7.06954301188092   14.06221967960513
C         1.50249821619444    8.61838461577032   15.54909502325075
H         1.42196413767263    8.69122442544368   16.63892934557204
H         0.59697912934788    9.03869460900014   15.10953433371236
C         1.13639547023600   11.83830404110740   14.90981828163987
H         0.39014801855177   11.13006511984561   15.29740990570532
C         0.98558738507874   11.87606532885417   13.39181299766696
H         1.64283840587962   12.63313445948410   12.96210785758453
H         1.24155223983725   10.90852945314495   12.95511408005054
C        -0.46166782984793   12.23007782609804   13.04718144423473
H        -0.58015228427630   12.27357300299746   11.96343818816028
H        -1.12566483456305   11.44871275497243   13.42365589254083
C        -0.85347321478598   13.56983616640951   13.66516502389399
H        -1.89489102473860   13.79220627152051   13.43051461259835
H        -0.23891809814434   14.36237862297260   13.23215988850200
C        -0.65785319470741   13.54952210494068   15.17947175010749
H        -0.91345546240436   14.52353378881360   15.59995616724273
H        -1.32406393783202   12.80754326189392   15.62497829395453
C         0.78989857317465   13.20143642514289   15.51455100347839
H         0.93333296311699   13.16939396620140   16.60481117549168
H         1.44057937083527   13.97793043329275   15.11200719357725
C         4.17876278741054   11.88954915664093   14.67997456134267
H         5.04251378957413   11.62674065212804   15.31067275921743
C         4.09905950529604   13.41643038123806   14.62760390499080
H         3.32254770289437   13.71788286765012   13.92412633571236
H         3.84144068779815   13.81941850363836   15.60967595046024
C         5.42805937967872   13.99740123857898   14.15312700212633
H         5.36874403938764   15.08698080265150   14.13037120666148
H         6.22231684923212   13.72005330794679   14.85203439430089
C         5.75756104731879   13.46288625265895   12.76311712597571
H         6.72058900979558   13.85233126928635   12.43113122126206
H         4.99909778452311   13.80432187661929   12.05584177579400
C         5.79189328088141   11.93830017965517   12.77522760722750
H         6.60489060111562   11.60026668665182   13.42316687805259
H         5.99262984824092   11.56529834917452   11.76988754228991
C         4.46959562706784   11.35360314181362   13.27681834176823
H         3.67061226149002   11.63128696787390   12.59004004531607
H         4.55582793281992   10.26714417287677   13.27862229835501
P         2.71981482073649   11.16975312693678   20.27600361313997
C         2.73994252742658    9.38672542380420   20.80722239842742
H         2.79355650276471    9.33722910524577   21.89972691820766
C         3.98419973433989    8.74688592417861   20.18499859605706
H         4.88766068228376    9.27480890915652   20.49881957985607
H         3.89415165239097    8.84006982012620   19.09318338491884
C         4.09985913302639    7.27369102274659   20.56352799374850
H         4.22344438249984    7.18816883713297   21.64541323929953
H         4.98437179153821    6.83967874641985   20.09326776762372
C         2.85199106039307    6.51059154257147   20.13489086621502
H         2.92779682051600    5.46796676554454   20.44493312414893
H         2.77057437676268    6.52933758363210   19.04566022901670
C         1.60869025331688    7.14756167340629   20.74445767749703
H         0.71620177029313    6.61567946174024   20.41133719430995
H         1.65595152929712    7.06953124767684   21.83273525725897
C         1.50251868910346    8.61839857597619   20.34588793739276
H         1.42201899469514    8.69125201136350   19.25605193642134
H         0.59699539043784    9.03871978427229   20.78542985252029
C         1.13646663237185   11.83829984307121   20.98515813969274
H         0.39022420768357   11.13006314553809   20.59755335735058
C         0.98559744231960   11.87605539293379   22.50315495801125
H         1.64286493414225   12.63309551689616   22.93288104798328
H         1.24153235991320   10.90850746093873   22.93984282011348
C        -0.46165312725611   12.23010328341875   22.84778096367128
H        -0.58014152759679   12.27361641759456   23.93152280928477
H        -1.12566687126705   11.44874820100268   22.47131713495767
C        -0.85343171524638   13.56986338708188   22.22978523687442
H        -1.89484674303415   13.79225551831680   22.46443051594149
H        -0.23886336969247   14.36240004931478   22.66278108660510
C        -0.65779934194564   13.54952551067073   20.71548246578835
H        -0.91340046778372   14.52353339646248   20.29498894324782
H        -1.32401651346061   12.80754740467268   20.26998446194386
C         0.78995664119480   13.20142495498336   20.38041624187300
H         0.93339436456000   13.16937194961283   19.29015654195960
H         1.44063294673396   13.97792690849018   20.78294861562507
C         4.17883393578985   11.88956602975825   21.21509289148576
H         5.04257164524865   11.62674800012517   20.58438250960019
C         4.09909959047296   13.41644184752910   21.26744297307126
H         3.32257235041386   13.71788171806744   21.97090912886591
H         3.84147740604686   13.81939944080108   20.28536041631159
C         5.42808286509124   13.99743293813936   21.74192735981350
H         5.36874985327240   15.08701178108602   21.76467899696171
H         6.22234068269988   13.72008892558986   21.04302205811554
C         5.75757515929658   13.46289675692542   23.13193366588979
H         6.72058898588927   13.85235936104022   23.46393456250694
H         4.99909495042099   13.80430399253978   23.83920463339502
C         5.79194979889587   11.93831237251691   23.11981398279200
H         6.60492789166937   11.60030307084539   22.47184074375209
H         5.99272100542598   11.56528961402914   24.12513929053801
C         4.46964627430844   11.35361169121930   22.61824864353819
H         3.67066673572779   11.63130176961986   23.30502873011155
H         4.55586842808862   10.26715179551333   22.61644665315260

