82
CSD_code = USETIX | q = 1 | S = 0 | Stoichiometry = C42H34ClIrNOP2(1+) | MND = 4
Ir        3.67615191878402    1.86547867155214    8.49210139925579
Cl       -1.05134434929927    2.62706729408102   11.31093626996126
P         4.61371625183616    1.15985568151166   10.52608808950282
P         2.53491308793883    2.63841662539437    6.59219043003749
O         6.31830652978891    2.85241299023083    7.46536704562184
N         1.91922018389650    1.18682821669779    9.16062784537183
C         5.30393904329150    2.47520103539445    7.86181984410264
C         1.13170158680317    1.97463263587497    9.88912871573404
H         1.48059163212465    2.97806018980361   10.09246668415275
C        -0.09376283382553    1.55080520038430   10.37973732183501
C        -0.52477589994523    0.25788735104892   10.10773975796928
H        -1.47304196012585   -0.09468139821478   10.47898927557378
C         0.30189948206494   -0.55332656447768    9.34829357117449
H         0.01242055779880   -1.56394545465550    9.10947116676305
C         1.50891152650579   -0.05422355292723    8.89603746169826
H         2.17546474946160   -0.66435397484408    8.30005590421347
C         5.58625626055253   -0.37386723743020   10.49563463109797
C         5.78620821955944   -1.15792170327943   11.62928103704653
H         5.31595911293746   -0.88971771400884   12.56577705383610
C         6.57818791565615   -2.28936895697612   11.55119780262959
H         6.73369095406116   -2.89520072084243   12.43108972721410
C         7.17200529386420   -2.64473618673055   10.35023209249039
H         7.79014634648015   -3.52757674194490   10.29683157068501
C         6.96974427405290   -1.87081540968780    9.21864637677534
H         7.42955419137220   -2.14965273034230    8.28287752750858
C         6.17766555960906   -0.73958630658955    9.29002435531156
H         6.00788261461476   -0.12380066461579    8.41405751409555
C         5.72653851710056    2.37692908491564   11.30108513266243
C         6.71063008432281    2.02421526218771   12.21721924815058
H         6.86698217350260    0.98770662088818   12.47691896837245
C         7.50321186714647    3.00541901079058   12.78652067246726
H         8.26979661600221    2.72872427681668   13.49413418151833
C         7.31906068780036    4.33659696603545   12.45002100374161
H         7.94175354737292    5.09639122811930   12.89638301030388
C         6.34116144827815    4.69231590974854   11.53460897728291
H         6.20093857095716    5.72860291821943   11.26699169193219
C         5.55030086056518    3.71552169579436   10.96011147630989
H         4.78949767570942    3.97626004455959   10.23217551338704
C         3.36703047465846    0.86436493670637   11.81974717559687
C         2.96599262544532    1.89657063582041   12.66214745513279
H         3.48501948121078    2.84468911278003   12.63189063547967
C         1.91844347313573    1.70419255480042   13.54521972202881
H         1.61834565311331    2.50483126277002   14.20396560290328
C         1.25510364649288    0.48883544639163   13.58345548869049
H         0.43759210682915    0.34099742455592   14.27198658607146
C         1.64458074669709   -0.53991527308899   12.74002346462260
H         1.13202257556950   -1.48973978341096   12.77164048073399
C         2.69121659234745   -0.35356874462882   11.85690930041585
H         2.99772709989874   -1.15686707080831   11.19950187461129
C         2.63642670003984    1.58357043755084    5.11755358467314
C         1.68389644021247    1.61606393922090    4.10196201129383
H         0.81630712886543    2.25599330723924    4.19065350240858
C         1.84399802826572    0.81678360936808    2.98436479533164
H         1.10579417774961    0.84386995531862    2.19713222420111
C         2.94723850659282   -0.01494823873253    2.87270351940287
H         3.06646986582486   -0.63473988625031    1.99748945238812
C         3.89401602922908   -0.05426483817733    3.88388746138355
H         4.75127399333809   -0.70431966220164    3.79769354782984
C         3.73862462908936    0.74131111491994    5.00417851929730
H         4.46906910404288    0.72289467494561    5.80567299419987
C         3.04591850877991    4.28534040614013    6.00304729653167
C         2.88065791777726    4.70193193508415    4.68730296953909
H         2.46071811781539    4.03180372276965    3.95194413862152
C         3.27165298237285    5.97627407234332    4.31533368004497
H         3.14669998704613    6.29557246750746    3.29191540661813
C         3.82444879147610    6.83893877381006    5.24761777387782
H         4.12939338205650    7.83033857109930    4.95030864628183
C         3.99397988190800    6.42652007705651    6.55985481012993
H         4.43103896587144    7.09518728296414    7.28577792090403
C         3.60911963681319    5.15347048508898    6.93508128379833
H         3.74885446287556    4.81186126315161    7.95484081808860
C         0.74644379890014    2.83886454022844    6.86988313771950
C         0.24286902848352    4.04077162245127    7.35779071329059
H         0.89784887916651    4.89582832418184    7.45335513285145
C        -1.09268930519689    4.14453185602436    7.70344671440107
H        -1.48035720244557    5.08238359774490    8.07115430405608
C        -1.93043898165751    3.04834480394345    7.57980303899333
H        -2.97150031991991    3.13053783551593    7.85123586811013
C        -1.43209409557494    1.84615209087603    7.10281596435651
H        -2.08419798150361    0.99155119481500    7.00116299706487
C        -0.09909333940031    1.73752760494687    6.75412795690598
H         0.28935350705062    0.79940896453884    6.37954968117086

