34
CSD_code = USEVIY | q = 0 | S = 0 | Stoichiometry = C17H11Cl2F2NPd | MND = 4
Pd        9.70750194031200    6.33899488698085    2.51130646444709
Cl        8.60349868865917    8.25325955497320    3.07219405678788
Cl       10.82978571149190    4.42635810322439    1.96399341694718
F         2.58633151125351    3.61945613478399    0.85391073689119
F        11.36851217005777    8.81790172484183   -4.62321404148359
N        10.75479699673894    6.41560890932505    4.15923397509537
C         8.70780898711744    6.25320486458649    0.91397391459492
C         7.54369574506731    5.91488329159914    0.18483135641487
C         8.57561199768562    6.53555028607683   -0.46640544201839
C         6.25873818482441    5.32713168278548    0.30273752845955
C         5.88073618712183    4.87540205712638    1.57522415944619
H         6.58177828548515    4.99471866653550    2.39494715763463
C         4.64371782738785    4.29975198046368    1.76626106039953
H         4.32584740048672    3.94520436775384    2.73371576296357
C         3.79306609699345    4.17966635816507    0.67661830706388
C         4.14333473900715    4.61746970070265   -0.59219674046326
H         3.44582186144623    4.50142538429313   -1.40659988011780
C         5.38212617471883    5.19417937897580   -0.77888311742542
H         5.67802385736503    5.54304592986384   -1.75626939715753
C         9.25005120102491    7.11270223747299   -1.57205935115849
C         8.69200394096302    7.18617328751446   -2.85227016539417
H         7.70322141660247    6.79262239879014   -3.03101348478976
C         9.40751104329849    7.76196229481967   -3.88121753972959
H         9.00392349333534    7.83358157264131   -4.87883772615301
C        10.67589625074304    8.25849656226669   -3.61883726575587
C        11.25271358865899    8.19796616519320   -2.35818628705007
H        12.24231952499699    8.59743508788388   -2.20385584978637
C        10.53440391141551    7.62267362743230   -1.33302237025586
H        10.94036134962619    7.54980941944292   -0.32814909080683
C        11.45005900532825    6.29114632098781    5.06416128862699
C        12.31306763563077    6.14310848948684    6.19267529834017
H        11.71894244143974    5.94740117554086    7.08524669904904
H        12.88974558126510    7.05690857364963    6.33541771252086
H        12.99204525243523    5.30819952454848    6.01866885395399

