106
CSD_code = USEXEW | q = 0 | S = 0 | Stoichiometry = C40H59Cl2N2OPRu | MND = 5
Ru        3.13943348929656    4.30348639679207    9.40579867629441
Cl        2.99947515000750    2.45705695581499    7.94561539782055
Cl        3.26761404992731    5.86033883082148   11.16710074273872
P         0.81771582286280    4.19338492204619    9.84319170886210
O         2.56483197016441    6.09918762445174    7.11819562241235
N         5.99001407854112    3.71540259368663   10.28742583038340
N         5.93685094233473    5.18359952069693    8.70690185564822
C         2.89689317904126    5.45061701429607    8.00922455642631
C         5.19559807116514    4.33290265140686    9.40978363641619
C         7.38636331359414    4.14405766520529   10.19895057956002
C         7.34847079113711    5.17790573625400    9.07802146918553
C         5.71476148121999    2.61111927274947   11.14230409561919
C         5.71951409504050    1.31907053978632   10.60506613561752
C         5.56860556949334    0.24322233999929   11.46842445514852
C         5.45394314713601    0.41944195775599   12.83949713497843
C         5.48192961284431    1.70955612373418   13.34806732020922
C         5.60942884051236    2.81674702381330   12.52105450939172
C         5.89668098274646    1.08734947268736    9.13877526560284
C         5.33858674261459   -0.75939239216990   13.75745445663371
C         5.64540734653532    4.19249113914279   13.11224337791971
C         5.52735310998896    5.99248775232349    7.61340296734720
C         5.28186472449869    7.35351107584286    7.81033696103359
C         4.93485063044225    8.12501326468011    6.71170504545731
C         4.83693149393285    7.57850882888793    5.44091428921368
C         5.10529292451711    6.22783311810973    5.27108938041573
C         5.45650160039354    5.41893430045459    6.33977149273418
C         5.36936987168932    7.96814527804673    9.17287254934227
C         4.42211635167540    8.42459847374228    4.27682801767766
C         5.71736996323953    3.95873027695026    6.14165680850165
C         0.75084124662560    3.09252665799786   11.34960972942138
C         0.82233610020607    3.82844195686865   12.68727138168077
C         0.88181594586749    2.82591377625374   13.83775702196566
C         2.09522910484723    1.91574593139083   13.69107228376519
C         2.03994343333376    1.17379501698155   12.36096354785870
C         1.95506020580367    2.15398863599600   11.19841902497791
C        -0.19601893839694    3.22586484295540    8.61213671859854
C        -1.58062842601897    2.69952615070141    8.98678339532242
C        -2.05874933224485    1.74904597784372    7.88850311096998
C        -2.13365182791235    2.47403479660037    6.54820324473016
C        -0.77422761079846    3.06244005228167    6.18343124031767
C        -0.27750778449092    3.98910794955503    7.28946175239609
C        -0.04567648383235    5.76218333929766   10.34613111009034
C        -1.55347232245147    5.66289745944990   10.55306020480853
C        -2.07019952754929    6.96360757969676   11.16465130242683
C        -1.75442781717731    8.13677436948475   10.24130427123213
C        -0.25320874721520    8.22475480546270    9.98180794390619
C         0.27877651124293    6.91769637573064    9.39845262252983
H         8.02970573939223    3.28706542126946    9.97370831770175
H         7.70933086497809    4.57121808582160   11.15197257834070
H         7.65419254269218    6.17257977194818    9.41262806671574
H         7.96555242319789    4.90340112101836    8.21610399906664
H         5.55993704934369   -0.75715578971961   11.05927136800660
H         5.41256137836967    1.85858078136440   14.41650139375914
H         4.98876599556623    1.36702942871404    8.60118496740786
H         6.09742277679859    0.03768192224216    8.94058650306248
H         6.71509725018980    1.68211476247178    8.73678659128534
H         4.75931109803957   -0.50604141811350   14.64250687016028
H         6.33074888134926   -1.07442658690777   14.08283492304868
H         4.86720125971829   -1.60040652753111   13.25402057730114
H         5.22880555315264    4.18483785866575   14.11688405117365
H         5.07634834172361    4.89698657696434   12.50646860161130
H         6.67170066581247    4.55512780872107   13.18226409518088
H         4.72663015076266    9.17576211003262    6.85462886298519
H         5.03168372601208    5.79230091467005    4.28499269121669
H         6.40852861873187    8.13678899860270    9.45766411851217
H         4.91154079286013    7.31881231525203    9.91735967260350
H         4.85723541103248    8.92642427033344    9.18859236306936
H         4.70226552599061    9.46399795269392    4.43086540438851
H         3.33906730065831    8.37906987074696    4.16192828637486
H         4.87394428985303    8.06672257097084    3.35460561896294
H         5.73571869826458    3.71351193626318    5.08359951377007
H         4.92573778916395    3.37594242812473    6.61434047669630
H         6.66454479082836    3.65795378054537    6.58606120579069
H        -0.16911232279678    2.49519192749507   11.33039416058119
H        -0.05657201374300    4.46277967742987   12.81760545877285
H         1.71197020379555    4.46336190847228   12.71611279305687
H         0.93097473436715    3.36497950048981   14.78621538877993
H        -0.03002058458899    2.22167948060510   13.84384810430528
H         2.13214639494505    1.19990259493161   14.51510006841911
H         3.00307270208316    2.52011974637809   13.72706617646221
H         1.15520147218108    0.53061770778375   12.33989649372906
H         2.91977081934510    0.53935443361811   12.24564466343180
H         2.89100458191130    2.76840839273360   11.16521218295132
H         1.88303687800082    1.59173308342084   10.26057208570016
H         0.44814516933119    2.34960330724633    8.43753515930554
H        -1.56384323688299    2.16383269563753    9.93757923614506
H        -2.29624582678291    3.51609968610100    9.07366116423134
H        -1.36535804917817    0.90888943474058    7.80714673573850
H        -3.04116275927293    1.34986983739398    8.15221898706043
H        -2.87220243569950    3.27744238605403    6.61292873895892
H        -2.46168534680414    1.78216773570026    5.76982449327896
H        -0.84518706275347    3.61393539691498    5.24382951683547
H        -0.05019207682834    2.25698213351796    6.04561201857724
H        -0.96090366483641    4.83590397565938    7.38873189513637
H         0.71048151047424    4.37522610426582    7.02493983293556
H         0.42942732710036    6.00778690993494   11.30549457714071
H        -2.04476820868625    5.51876370432537    9.58955089440846
H        -1.80287864854992    4.81685566209932   11.19792455111570
H        -3.14866419757600    6.89387081161082   11.32564489763489
H        -1.59577907554387    7.12606714954939   12.13530560825031
H        -2.10977432109915    9.06777981571045   10.68783297768202
H        -2.27920799369559    8.00047719911940    9.29237528704625
H        -0.04165198004692    9.04574584958687    9.29408496468937
H         0.26604835002397    8.43184561605648   10.92014792416921
H         1.36307292066169    6.99369959811732    9.27560965939100
H        -0.16142524974048    6.74509273956780    8.41449794032404

