106
CSD_code = USEXAS | q = 0 | S = 0 | Stoichiometry = C40H59Cl2N2PRuS | MND = 5
Ru        4.33466036209802   11.50020365677464    3.17416953216915
Cl        5.61398907742637   12.83719422806127    1.72475358358047
Cl        2.88088875001623   10.59594480605640    4.77633055346106
S         6.24941960564878    8.82513558303523    2.38152352405097
P         5.79251991156132   11.99658422652334    4.98397959602570
N         1.69706695488382   12.10319740846189    1.82297048315864
N         2.49903687297076   10.22415983411416    1.12818183293246
C         5.26835762932726    9.99283637624574    2.68904665090612
C         2.76485473857741   11.30045308623418    1.85959250965593
C         0.60370921088828   11.56787322948840    1.01044422459531
C         1.17953302298340   10.25188387157263    0.50205021858051
C         1.53535947500568   13.44142007856547    2.28084988820326
C         0.70929596592123   13.69782325659838    3.37993989759722
C         0.44190323452316   15.01771356932664    3.71341686944384
C         0.97340372620146   16.07558747651252    2.98968682961823
C         1.77804383667628   15.79351779254778    1.89660599022779
C         2.05237890005230   14.48884442014709    1.51009344505418
C         0.09736977403033   12.58934368627310    4.18067029608016
C         0.64980076308227   17.48810428157832    3.37094076688137
C         2.86363104135777   14.22528362614838    0.28223013504839
C         3.34837304764996    9.13618403844532    0.79400403849367
C         3.18390753821650    7.90997242944915    1.44076627051608
C         3.94827986144578    6.83371308334806    1.01555059774919
C         4.85472410646250    6.95340479961556   -0.02748374396959
C         4.99583538110739    8.18439046421793   -0.65364823591373
C         4.25184592426460    9.28563307341797   -0.26244979856461
C         2.22988399318724    7.76033139557846    2.58495107447048
C         5.69362688734438    5.78594186451355   -0.44636399942936
C         4.43792375656844   10.61427760998043   -0.92516305308369
C         5.03307684972122   13.51855166117714    5.75246449191117
C         3.99980417594633   13.25205732149028    6.84652472985424
C         3.40658708579743   14.57141770998917    7.33640073208658
C         2.75052493742257   15.32571997338798    6.18627335274135
C         3.76113571172792   15.58483176895534    5.07505354240225
C         4.37961065711453   14.27894881030166    4.59261198865967
C         7.48341916594576   12.63144380011856    4.51727232591426
C         8.36697515261031   13.32153067218351    5.55559867613573
C         9.56765249142263   13.94641191680122    4.84433559866366
C        10.37783845660542   12.87382462040988    4.12267645362456
C         9.50075789513781   12.12637665504536    3.12319120677667
C         8.28056713427576   11.53027949907436    3.81857947511882
C         5.87621323381483   10.76071446794706    6.37144709918331
C         6.86235322863006   11.06530451877274    7.49419483921286
C         6.63445965157603   10.08799133606535    8.64586592154294
C         6.83623688733880    8.65465682486041    8.16245165280780
C         5.89875007263265    8.34408176369652    6.99908404691010
C         6.09522689716140    9.33835246034173    5.85752905279909
H         0.35355887875650   12.26931556902951    0.20772305953154
H        -0.28649802059402   11.42472543146782    1.62862319921023
H         0.59509441150200    9.38455713276105    0.81857331465016
H         1.28005642116356   10.21636315658393   -0.58796766227234
H        -0.20903029893663   15.22524722157042    4.55127387258806
H         2.18519657042683   16.60637904186494    1.31210314237622
H        -0.82089213032258   12.23766135570372    3.70777987964697
H        -0.15997629435906   12.93976201827733    5.17790618913188
H         0.77896347637894   11.74544835182968    4.27657391368483
H        -0.37517854443811   17.72595854134099    3.08559756642605
H         1.31459016185524   18.18918291203719    2.87252700023891
H         0.73562196121058   17.62422580980608    4.44739638068253
H         3.86528304033089   13.88913733509775    0.55623728683506
H         2.96131759692345   15.13098102014119   -0.31050792889151
H         2.41221062410687   13.45018033250103   -0.33485110495950
H         3.83929763327350    5.88320788536930    1.51782907058381
H         5.70695153209597    8.28928162176592   -1.46032245324057
H         2.26720025963769    8.63619413834129    3.23094268948409
H         2.48441689756808    6.88415665792566    3.17529509922104
H         1.20614190635907    7.63991653069136    2.22852203213842
H         6.62562466723292    5.78701731307884    0.11921878265295
H         5.94107760341443    5.84343939977048   -1.50372283707154
H         5.18090481833343    4.84724066604084   -0.25052358792179
H         3.49475328331726   11.00968613601093   -1.29971050557519
H         5.13480327032685   10.53417892650000   -1.75454524268854
H         4.83982866439644   11.32974121407272   -0.20627957344876
H         5.83192108512415   14.14016206140097    6.17601792097229
H         3.19991143954611   12.61570165728263    6.45831111347705
H         4.46349526400319   12.74143402267302    7.69243303044133
H         4.19879570812760   15.18684159909589    7.77253466805439
H         2.67159826615086   14.37096137562096    8.11893781593370
H         1.92817328334459   14.72846973093030    5.78931458412544
H         2.33930639564266   16.27241632000273    6.54386639839678
H         4.55902503994353   16.23145136087112    5.45171900752126
H         3.28044996653660   16.09607122830883    4.23971912327471
H         3.58498275987424   13.63810796428369    4.14357899760976
H         5.11914959552467   14.49942565211676    3.81500776715324
H         7.23297799001862   13.38186906906436    3.75058050225091
H         8.73618270632469   12.60331383752211    6.28647515203301
H         7.82550838824574   14.10188650359171    6.09369099027949
H         9.21853558752150   14.68580450288864    4.11986790231148
H        10.19706077630453   14.46196962690413    5.57390946394790
H        11.22440470442182   13.33185510271149    3.60719442945954
H        10.77616403764385   12.16770900144543    4.85594679451851
H        10.07420078306075   11.33188495410149    2.64180601158085
H         9.16273057633108   12.81393836055375    2.34520151641878
H         8.60205375226003   10.78165914221706    4.54670515654857
H         7.64679970924974   11.03633042168523    3.07761455171229
H         4.85609602551482   10.78649692268056    6.77843231900784
H         7.88172567477239   10.93136703893354    7.12938827143915
H         6.75296366287722   12.09444802066352    7.84416193651141
H         7.32782444776283   10.30894530070028    9.46094597922190
H         5.61798723297312   10.20366243437612    9.02961101200978
H         6.65519136775633    7.95664005894560    8.98244372025891
H         7.87168259492037    8.52631455503829    7.83752434538976
H         4.86320572025148    8.39805741826661    7.34229840652837
H         6.07854782565569    7.33046058342460    6.63609792486464
H         7.09757700820807    9.23003491428251    5.43845302509996
H         5.37243919979727    9.12517450421335    5.06452341460737

