39
CSD_code = USIGEJ | q = 0 | S = 0 | Stoichiometry = C13H20O4SW | MND = 8
W        13.29728700713629    5.88276191438952    8.11199425742784
S        14.15933061369767    5.31413833844765   10.29136788922694
O        14.74022221417627    6.17325268100145    7.28420205234456
O        12.67131163720757    4.36745685818429    7.70657127985424
O        16.96674719640934    2.09723399906834    7.45545012016795
H        17.29954724512794    1.19485373162975    7.32558095720309
O        15.92400145670698    1.18777585579572    9.20048293797598
C        14.73319442521330    3.60710066745497    9.97653390448869
H        15.29653108500302    3.29692384366515   10.85871140471406
H        13.84918498434157    2.97373963559182    9.87018694481464
C        15.59979925935145    3.53468026551160    8.72647220253420
H        14.99886728236962    3.80886847140010    7.83302406160652
H        16.43205954138685    4.24490717244521    8.78557683448607
C        16.15585411089596    2.14873419013123    8.51813619847276
C        11.06275895519119    6.67371801813256    8.03190867855966
C        11.89336932235225    7.32803454160727    7.05511848254856
C        12.81100999254923    8.17941492369487    7.75921637207293
C        12.66673986350788    7.92060893366347    9.14217378919848
C        11.57129212586563    6.98935560308377    9.31093560505564
C         9.86353742218352    5.82109567077087    7.71058697877769
H         9.21220870458320    5.73474360068696    8.57739533110859
H        10.17638845558258    4.81681218186952    7.41057685349069
H         9.29362721841373    6.26385739313742    6.89455291473158
C        11.64740647968720    7.34872070964071    5.56600569428224
H        11.23193943065077    6.39658234003159    5.23545914785411
H        12.58130571457890    7.51963158882809    5.03014244073596
H        10.94571682647237    8.14434776406981    5.30255409065236
C        13.74942933667367    9.15511015148411    7.10107603644695
H        13.23320367823150    9.69905185643211    6.31062291705018
H        14.60017124604368    8.62729214976129    6.66109995773883
H        14.12638298340078    9.87443163765797    7.82412273589575
C        13.32953698702931    8.66645913387589   10.27184959026746
H        14.27446922707543    9.10006722085284    9.95052355556274
H        13.53304663699573    7.99959053001872   11.11008839449507
H        12.67944437384684    9.47042161535057   10.62388568591088
C        10.95040956535527    6.63205242464630   10.63626337926131
H        11.71692598875640    6.49989234283277   11.39958443294431
H        10.38235641011375    5.70645659721638   10.56364872349113
H        10.27688499588275    7.42782344586427   10.96211716656835

