65
CSD_code = USIGUZ | q = 0 | S = 0 | Stoichiometry = C23H24CoN7O8S2 | MND = 6
Co        8.38929832866886    5.70135521358684    3.64327132076500
S        10.97935815225964   11.15712624296320    3.28454271008433
S        10.03489913695308    8.37502304467237    4.12227224992679
O        11.07701914982382    5.36293415989109    4.66269157398287
O         9.27589520356533    6.03885566330613    6.27685636812649
O         5.75845301972478    6.20988730383899    2.57410859614575
O         7.47235621335109    5.20834735475918    1.03991392959186
N        10.21992964283503    5.29743516271687    3.61539466179640
O        12.41560840255739   13.07365613485494    3.75774822145488
N         8.30030838419091    6.18313442348348    5.44931853422384
N         6.59758281555918    6.23076293925090    3.63772133674937
O        17.35939757073656    9.87095306623713    2.04337266112233
N         8.49145264120338    5.24875358263052    1.82800336871393
N         7.91157415129833    3.83164836185576    4.10503939022875
N        16.41359892558328    9.13885072702555    1.84927879154196
N        13.55116718873386   12.66805492611518    3.56868995086105
O        16.48541653781044    8.01939468251615    1.38402803418783
O        14.55457099509711   13.30608755159362    3.80282262303422
C        10.68361748635786    4.99611504196724    2.44931683147043
C         6.16985526201513    6.68363683577793    4.76749843181201
C        13.68675264446523   11.35431026109402    3.03577888832731
C         6.97785672551073    3.16819932964469    3.42107332639580
H         6.50903218303612    3.68027444489202    2.59186866965103
C         8.43863949853935    8.26354727684549    2.13426875544091
H         7.70322397176742    7.93777345738141    1.41893538016834
C        12.54276167075833   10.55243453076977    2.84067209818033
C         7.14442183700550    6.64466251119152    5.82023620060263
C         9.68506318067205    4.93863631673652    1.42001021300245
C         6.85314601928419    7.08988514074124    7.21702632224360
H         7.76253983554675    6.99810107449637    7.80674376425823
H         6.07300092154942    6.47646697903006    7.66589485913148
H         6.52354458446667    8.12715335912057    7.22702324997838
C        12.73403595267655    9.27502911276384    2.28652628279847
H        11.87657371769098    8.64840873421572    2.10376159620652
C        15.10687438411943    9.62875239999851    2.19031094380718
C        14.95826711100658   10.89586633724542    2.72091798192493
H        15.81571954219313   11.53225980458999    2.88934347148082
C         9.98302045710473    9.72367769972214    3.02431894429473
C         9.06705132590960    9.52252963074267    2.03703728202124
H         8.86484310744401   10.23927580205417    1.26153591776913
C         8.85454249994686    7.50104683155921    3.19033056907070
C        12.12610670248887    4.71952057533902    2.18874748504507
H        12.72433090405925    5.11842707509399    3.00449932998065
H        12.43582429403985    5.16509298006799    1.24722229658917
H        12.29750508415796    3.64513064886717    2.12969297197131
C        13.98559655828823    8.82002298809230    1.96742322183271
H        14.13083741168638    7.84020020125899    1.53927724699039
C         7.22350827363922    1.21568601932678    4.77229098918748
H         6.95648497224719    0.20258462636631    5.03113451194833
C         4.78793123333155    7.20114509749344    4.98380906029044
H         4.21325176376317    7.10762980243267    4.06649554518135
H         4.82749704003172    8.24897129820855    5.27635148480328
H         4.29572351133295    6.64595826865450    5.78015298239338
C         8.50642601013760    3.19891744984545    5.11768029018093
H         9.25429982025939    3.74468775326621    5.67648258196803
C         9.99002568731235    4.54369087967810    0.01044341217526
H         9.05367180813321    4.46301596147220   -0.53715030927426
H        10.51230615643797    3.58948030752783   -0.02093341479654
H        10.61382233206483    5.29488718883381   -0.47245839718866
C         6.60587059056821    1.86929779289745    3.71861019728132
H         5.84410000298955    1.38494847715137    3.12904731610075
C         8.19497465013006    1.90123960775798    5.48284198011252
H         8.70966758356537    1.44315098264769    6.31213357346158
H        10.48394935925187    5.68062730225492    5.45844004348498
H         6.34161787096757    5.82658326149221    1.79826129768173

