61
CSD_code = USIGOT | q = 0 | S = 0 | Stoichiometry = C21H29CoN6O4 | MND = 6
C         1.54890985016981    4.52542088052090   13.24442260361146
C         0.69519468668850    3.37178681034329   13.31662755453933
C         1.31451093965079    5.65791571957218   12.29624862921384
H         2.09923445674220    6.39710980183670   12.44138077665006
H         0.34647565442831    6.12401816794626   12.47621150668376
H         1.34131617550185    5.30552553612731   11.26645298782822
C        -0.49463710704625    3.19995785977352   12.43181375477771
H        -0.98468365900525    2.25720268083263   12.65911027080904
H        -0.18388364249539    3.20242283729164   11.38860947224201
H        -1.19825684825778    4.01797497412871   12.57908014912354
C         4.59302613039405    2.48833346681994   16.94409585670022
C         3.70210559653558    1.36686941949345   17.06294419220133
C         3.93095408633749    0.24045295367686   18.01959844019910
H         3.12739733881241   -0.48276831471510   17.89929600092561
H         3.93783003435931    0.59833655969049   19.04868668167072
H         4.88374335612526   -0.24570277234196   17.81718123150753
C         5.83870425104826    2.60845615677816   17.75751313001065
H         6.34049450829590    3.54271012874031   17.52062468366397
H         6.50521774203672    1.77665540380775   17.53669945534676
H         5.60262514560281    2.58263346037740   18.81997386064875
C         1.74706647536852    5.21581941085197   17.00346902432819
H         2.55453378858003    5.70499814703893   16.47573971230595
C         1.04672779966076    5.89918456022446   17.98271475069946
H         1.31537460048800    6.91539927078714   18.22423966345432
C         0.00817545145750    5.25671850238528   18.63671473670514
H        -0.55827676733360    5.75979682622586   19.40626830042476
C        -0.28373377008536    3.95133199154104   18.27641035617345
H        -1.08286550013053    3.40559440316675   18.75262664875019
C         0.47027310196504    3.34446846978765   17.28665133379797
H         0.26241113933934    2.32264762583849   16.99947521057073
C         3.65050541562450    2.05043230038320   13.82924094154830
C         4.69811146830188    2.67995041304443   13.16991417494710
H         4.96201127271294    3.70564662390280   13.38381103711870
C         5.44710101052399    2.03193838173342   12.20351273654729
H         6.24106509652216    2.58683096573137   11.73046917497622
C         5.18688187176240    0.70629609259051   11.84620939806766
C         4.12689083114227    0.07790970183837   12.50581008095685
H         3.86318019197544   -0.94234693407508   12.27914752058908
C         3.38525160461173    0.73489810591936   13.47130779622230
H         2.58678116437191    0.17523155841875   13.93673605804323
C         6.88861184847210    0.78468340007956   10.10480412842192
H         7.43344314251760    0.10128906886860    9.45600025981940
H         7.61716134806189    1.28983266948383   10.74023245748521
H         6.38866372939155    1.53503588615045    9.47769842051361
C         5.44830085327423   -1.18868945467502   10.34252106277069
H         6.14503780567178   -1.55487188025676    9.59112801854660
H         4.46885375505392   -1.04758378505651    9.86754696224106
H         5.35496926700079   -1.95744700933744   11.11164662352230
N         2.66681349685373    1.43981407003853   16.27826196473515
N         4.19907908486613    3.37486210966771   16.09115998863109
N         1.04679144533246    2.52443381492582   14.22635511600601
N         2.52998756320427    4.49884126441972   14.09897717266152
N         1.46940219463031    3.96044618613334   16.65888147595654
N         5.96470321024785    0.03115310886684   10.91815249427093
O         1.73040390514239    0.54848887156521   16.30690937730832
O         0.29167771873616    1.41312370055059   14.42472290009817
O         4.93346989374379    4.50496662151122   15.92194417451466
H         4.40694586967213    5.03320131690282   15.19214130912093
O         3.35381967515123    5.48826526693960   14.21645513698564
Co        2.59732689779868    2.97111645560241   15.18914466478151
H         0.79329235238967    0.90788016958425   15.18947639702723

