107
CSD_code = USIHAH | q = 0 | S = 0 | Stoichiometry = C41H62N2NiO | MND = 3
Ni        9.88562846320835   10.10923019072271    3.02905068024806
O         9.88555900266618    7.19277104376622    3.02825723051452
C         9.88573408691464    8.34640063312522    3.02883135332769
C         9.31395028750387   10.88674255290408    4.77196891995018
N         8.16813232469181   11.31691687070514    5.26077400215057
C         8.08764951563191   11.52530251518572    6.73042523637145
C         9.55711739311197   11.40314378790514    7.14450114695798
H         9.66716832788468   10.84234029235271    8.07082717146228
H         9.98478784364625   12.39532896234043    7.29810295249997
C        10.25950632158067   10.70501413461738    5.96555503924075
C         7.20778257834621   10.46092074905665    7.39037174461543
H         6.18825633129554   10.53961357507959    7.02040696381615
H         7.19393301574066   10.61923356123880    8.46664070358935
H         7.57631806726659    9.45775149812896    7.20037432820017
C         7.50671671776939   12.89035875688593    7.09706218292994
H         8.13587148668299   13.70062495413334    6.74187676839219
H         7.44108168052737   12.96550997364009    8.18060624584874
H         6.50697819760565   13.00839051753116    6.68463308450013
C        10.41717428516794    9.20371315415532    6.25220712314162
H         9.45362177170247    8.71548717430084    6.37740869476996
H        10.99877450618614    9.06177172506719    7.16207076525455
H        10.93840200815030    8.71809215137705    5.43045309002984
C        11.64733374421952   11.28527019954603    5.68645563564957
H        11.97936965124884   10.98243296790790    4.69233002642366
H        12.36650864240664   10.92584513612888    6.42033765524601
H        11.63220288699612   12.37121010233995    5.72567880063057
C         6.98798488469234   11.54428514535364    4.48615969189361
C         6.70916950713840   12.83175286940041    4.00627544910717
C         5.48238002348549   13.07142029142167    3.40073222040948
H         5.25359169297671   14.06085720677178    3.03651355210005
C         4.54958484671656   12.06593174219842    3.25280113874195
H         3.59021439451145   12.27435243244710    2.80229002880297
C         4.87241667979088   10.78201854895116    3.63966084893295
H         4.16756151717815    9.98469548080610    3.46200833205173
C         6.09002109238047   10.49449587621134    4.24416597734059
C         7.73188929059386   13.94419291201601    4.01325700124848
H         8.58028699605158   13.65205793087491    4.63554306504419
C         8.25108044754317   14.11263594634906    2.58301004431507
H         8.82492346477342   13.23188502600857    2.30605493107174
H         8.88881155878003   14.98998471437599    2.51012522048561
H         7.42374317888172   14.23113851548501    1.88646718740719
C         7.17051265777383   15.27183734379083    4.52918070852681
H         6.49417761868018   15.71779483867048    3.80431301265345
H         7.98416633944346   15.97448046852335    4.69980030773054
H         6.62917606866332   15.14056181308634    5.46292826657944
C         6.43969971848490    9.04457338783694    4.48581480000906
H         7.38120971847407    8.98747534206258    5.03536091018415
C         6.67859209839866    8.39467863036988    3.12025528435766
H         5.78931525228734    8.44747337408508    2.49602918634202
H         6.96272741336675    7.35170429055415    3.24057084285716
H         7.49024396672896    8.92196183620018    2.61507370621021
C         5.36614756972206    8.27326028735064    5.25486014443154
H         4.46419467566630    8.15689502055499    4.65919311216123
H         5.09913923198492    8.77505409184880    6.18185960775873
H         5.73528772568029    7.27904369153301    5.49804413513932
C        10.45724409328944   10.88679576789494    1.28618569179967
N        11.60320231025130   11.31680628743550    0.79754004530178
C        11.68393557574328   11.52514730289237   -0.67209593052418
C        10.21451062428015   11.40318564868929   -1.08638356583480
H        10.10452070852769   10.84238236620970   -2.01271297458645
H         9.78699554429529   12.39542625133385   -1.24006419491581
C         9.51184163045362   10.70517415826397    0.09246380360113
C        12.56374060787352   10.46062723414328   -1.33190178518883
H        13.58325320719636   10.53924687041359   -0.96188379322312
H        12.57766733866542   10.61886035081409   -2.40818059933182
H        12.19508438253730    9.45751265027008   -1.14184922396100
C        12.26512198448361   12.89011474394271   -1.03865821359636
H        11.63601438844887   13.70047524500854   -0.68360500363701
H        12.33096317012254   12.96522702892015   -2.12219063624809
H        13.26480335033408   13.00802251618659   -0.62605126746941
C         9.35398480359419    9.20388859820708   -0.19416682397897
H        10.31748054742328    8.71547007846720   -0.31908130799570
H         8.77260618468294    9.06202012970185   -1.10418183063747
H         8.83242708763378    8.71840785273882    0.62745948072698
C         8.12405867143044   11.28567058450054    0.37129578826047
H         7.79170976712979   10.98277897359012    1.36529526127459
H         7.40501188185368   10.92645883074586   -0.36281469343056
H         8.13939939964049   12.37161544929586    0.33219147249732
C        12.78320158931107   11.54419698671129    1.57237859652572
C        13.06185246377729   12.83167458855687    2.05234307136888
C        14.28848769061064   13.07139398645702    2.65817660077092
H        14.51714707560428   14.06084023659674    3.02245287392293
C        15.22129368242349   12.06594646223017    2.80631811071842
H        16.18055947151336   12.27441103699789    3.25703231621118
C        14.89862065610058   10.78202968828097    2.41934246315513
H        15.60349232531664    9.98474542132588    2.59710525124065
C        13.68117023171336   10.49445193221968    1.81454719333256
C        12.03911279801881   13.94409560277473    2.04509760465469
H        11.19083084793667   13.65189924319306    1.42268055434845
C        11.51965297510747   14.11268433959961    3.47523051699193
H        10.94579686748291   13.23194410445036    3.75219581124659
H        10.88187107468166   14.99001507957564    3.54788736697362
H        12.34685761948577   14.23131796053344    4.17190851776586
C        12.60058704046798   15.27169630376961    1.52916114050401
H        13.27671932844022   15.71775672161181    2.25415523551454
H        11.78695613119882   15.97429300842227    1.35824812536211
H        13.14217690802092   15.14033025071678    0.59557282499697
C        13.33167868516804    9.04450587339503    1.57274879513052
H        12.39021580148184    8.98735464135883    1.02311562488631
C        13.09278582008763    8.39440051087099    2.93820772840327
H        13.98202755236406    8.44717773991551    3.56248705716732
H        12.80874822586146    7.35141683678220    2.81773077419975
H        12.28107142847734    8.92152879771837    3.44342750705546
C        14.40540942705942    8.27339957670663    0.80374374077793
H        15.30730657096062    8.15705612786982    1.39950583251805
H        14.67248246719771    8.77532927705331   -0.12315852676002
H        14.03640121524318    7.27917650935283    0.56039133246418

