42
CSD_code = USITOG | q = 0 | S = 0 | Stoichiometry = C13H17N3O7SZn | MND = 5
C         3.08368774186784   -4.03560548420454    6.98949948572809
C         2.76777329986863   -3.67477965117838    8.33308321178561
C         3.29593038409860   -4.38081102673175    9.41477398059344
H         3.03636668209823   -4.06514083674478   10.41274958427757
C         4.12226345849358   -5.45852539577680    9.19853059942304
H         4.54164230708040   -6.02410734524419   10.01509868196372
C         4.41829270592164   -5.83223257670293    7.88611027726879
C         3.91413384716030   -5.14202175670979    6.79401855923862
H         4.17043392501490   -5.45290974600252    5.79359095786467
C        -0.75969592794673    0.75545524264087    9.07702885958440
H        -0.27130781179348    1.49580526226885    9.70681302023560
H        -1.59812936655044    0.36601893171066    9.64947487251549
H        -1.11361551992447    1.21558298630012    8.15707380648367
C         0.19484541068728   -0.35104507130715    8.73941979518321
C         0.77923807374641   -1.13721621903226    9.78364967288669
C         0.53294422914392   -0.84888373993543   11.21255182054023
C         1.23101540394110   -1.77765671814525   12.17598153806657
H         0.99841581794331   -1.47638524192480   13.19388502711467
H         2.30418341868755   -1.73932867197835   12.01286704552079
H         0.90071638560879   -2.79857842092493   12.00686280450336
C        -1.10922959765467   -5.21284542558777    4.69732039011004
H        -1.62009095536034   -5.57990535056924    5.58074830777849
H        -0.86873595749975   -6.04280538821707    4.04325113399657
H        -1.73474425870190   -4.48792179243133    4.19075950289803
C         0.89454241753428   -3.75882897424969    3.61403710914739
H         0.13703484125164   -3.04742482323126    3.30598153248627
H         0.96965601816433   -4.58377024815523    2.91530028057468
H         1.85441204175849   -3.26785523140816    3.72017565492748
N         1.92018588213743   -2.59636896734035    8.43197885889198
N         1.59219201815780   -2.17701519812499    9.60259461896840
N         5.26427044724702   -6.96585004765610    7.65808520548891
O        -0.11098799286572   -3.23120505743962    6.00402570221634
O         0.44884410668075   -0.51199495186190    7.51231515266957
O        -0.16745749628639    0.06035654506334   11.61005907473458
O         5.45914356010461   -7.31149280549419    6.50826322759518
O         5.73973070315339   -7.52785500740105    8.62601530086196
O         1.48905510149611   -0.76504909163672    4.97596523849707
O         2.59757418596109   -3.35041868630241    5.98996445627628
Zn        1.26972313225346   -2.10055672491975    6.69041965081488
S         0.45193096651076   -4.41290679545571    5.25423863337556
H         2.39626986479481   -0.46773029264966    4.85389254274958
H         0.96344650602040   -0.00089020531022    5.23864482416586

