42
CSD_code = USIVAU | q = 0 | S = 0 | Stoichiometry = C14H17N3O7Zn | MND = 5
C         5.70667996236622    2.45650396923305   14.71716627378250
C         5.02817632196928    3.22444505482402   13.72383805466026
C         5.53097670781914    4.44478100315247   13.27150495060088
H         4.97222380028041    4.98121605906395   12.52075922605667
C         6.71074640987904    4.93075945033574   13.78315572896896
H         7.12756788220249    5.86916973395610   13.45477368535816
C         7.38535736960576    4.18552979402137   14.75362139313676
C         6.90447083334375    2.97280191925242   15.22104797472062
H         7.45314005691881    2.42739803096523   15.97271906221690
N         8.61863277611788    4.68949984286050   15.28620048254239
C         2.00547013818388    2.71797865092769   11.95851256747820
C         1.37161622064724    3.56049587349723   10.92086625728745
C         0.06628104234672    3.05976614793830   10.33648550609817
H        -0.73739361154397    3.48568324202577   10.94569754556295
H        -0.03350524133375    3.47609706020096    9.33241627505549
C        -0.05427185588380    1.53672556070849   10.31926070239241
C         0.12663690204687    1.04825258452401   11.75773511207154
H        -0.68510321492932    1.44140210256686   12.37888016813217
H         0.08115852576174   -0.04128770489075   11.81749997490864
C         1.42722374120832    1.49460911582784   12.38284072003698
C        -1.43902064994010    1.12992284187349    9.81099810260109
H        -1.54234463580391    0.04716300204420    9.81046659356708
H        -1.58801269079227    1.48710448224162    8.79505421334107
H        -2.22253963264942    1.54911648145341   10.43847692277936
C         1.01746866939166    0.92871576292972    9.41250458549086
H         2.01412535750674    1.20391481474181    9.74919406076855
H         0.89303234874072    1.28378044286341    8.39235943380895
H         0.94219407485913   -0.15662380531662    9.40916235720157
N         3.86152740164668    2.64713530522615   13.28402028327974
N         3.15055833039783    3.24280779329771   12.40205636727137
O         5.21464032853401    1.32052534002990   15.13040677087601
O         1.89839891979190    0.73215951531750   13.27807052094527
O         1.85571242622899    4.60991969954441   10.56207264443115
O         9.19533742859019    4.02108968992060   16.12236696841930
O         9.02386052001495    5.75845548342105   14.87360543800783
O         4.53466750167190   -0.82533747476532   13.29703902954184
O         3.03053599095358   -0.28887389901059   15.82824495674914
Zn        3.64141268245841    0.93410652453952   14.10380543917180
H         4.01964247446885   -1.60719566564820   13.52284688126420
H         5.38474132006906   -0.90185715265266   13.74685186313511
H         3.69071559781851   -0.03786272127791   16.48525108307854
H         2.16296146903612   -0.10029395176432   16.19786382320180

