37
CSD_code = USIVAV | q = 0 | S = 0 | Stoichiometry = C20H12N4Pt | MND = 4
Pt        0.10072825375452    1.51440670054819    1.07658533955971
N         1.62240500104654    2.74829099301875    0.63122297809920
N         1.34724763611771    0.36680955688122    2.15617648216700
N        -1.42090868405008    0.28041692360111    1.52178757017514
N        -1.14584598119024    2.66215819264542   -0.00276403854025
C         1.56400667651629    3.87107990305698   -0.14081495310507
C         2.91762591898448    2.62838236195993    1.04127428997465
C         2.68022015028576    0.57416796458074    2.35694863768731
C         1.02736862240935   -0.77313075780399    2.83317245993133
C        -1.36044785737704   -0.84789252001535    2.28557917592741
C        -2.71812859824990    0.40567764310755    1.11974275917466
C        -2.48094297052272    2.46049845763532   -0.19501458547499
C        -0.82402622456712    3.79689595916609   -0.68753717246683
C         2.86324231165870    4.47823802956782   -0.22061462237078
H         3.08252160781941    5.37374634772291   -0.76924583246381
C         3.70073823799925    3.70964963852712    0.51154194145269
H         4.75040023525661    3.84308332050562    0.68879559453748
C         3.21793969767830   -0.46740581291493    3.18700741476033
H         4.24461491591426   -0.53224340914004    3.49155230934347
C         2.19526970657210   -1.30158869101107    3.48106193740168
H         2.20796047784810   -2.19347594670453    4.07720735606458
C        -2.66020442536634   -1.45365494352309    2.36746342193609
H        -2.87802708330114   -2.35302815740802    2.91032185737095
C        -3.50054022694338   -0.67747245250862    1.64666209475874
H        -4.55155189993054   -0.80728761556578    1.47480348941046
C        -3.01824948946678    3.50094770424027   -1.02675578303523
H        -4.04646014516004    3.56988196412596   -1.32515736591400
C        -1.99272776273688    4.32748645762661   -1.33223223809780
H        -2.00413631355580    5.21594755477872   -1.93349703143467
C         3.42305340340097    1.62272826678922    1.84522920726024
H         4.47456925763868    1.65792368731327    2.08991035527190
C        -0.22790248647951   -1.35009343878441    2.90061371059365
H        -0.33160666734990   -2.25787473546723    3.47678395937949
C        -3.22516747277366    1.41564057209042    0.32222982682166
H        -4.27848948708394    1.38528941378875    0.08477672709631
C         0.43284405713337    4.36957994214150   -0.76138042847930
H         0.53830760807058    5.27262092542759   -1.34463684477345

