39
CSD_code = USIWUQ | q = 0 | S = 0 | Stoichiometry = C16H18ClNPtSe2 | MND = 4
Pt        4.17481381366090    8.04510972656815    8.89315497880139
Se        4.58704959696304    7.92406721638023    6.55543538690718
Cl        4.17365813193939   10.33275402822635    8.89305016461806
N         4.17435181953039    6.02421384430439    8.89286780109854
C         3.87598196489831    5.38861399507618    7.72244909271281
C         3.33120031242864    4.09430477093063    7.64259553078725
H         3.10134282929666    3.56672297473346    8.55586127296906
C         3.04611697042488    3.51258653831544    6.42844332337066
H         2.62346015373807    2.51805002194993    6.41117689159149
C         3.28061022749937    4.17157769907877    5.22320394531363
C         3.76659406595978    5.46830623068731    5.28317376001899
H         3.93349729915737    6.02776641012314    4.37195859705094
C         4.02901644277843    6.07166153960717    6.50010686687813
C         2.96795571699822    3.52033455142851    3.91016730711187
H         3.14212548080765    2.44787218372658    3.96166311293911
H         3.58060941716743    3.93898593204480    3.11513112966756
H         1.92026793202358    3.67808739215606    3.64970531724888
C         2.89326960832861    8.73085373061102    5.99573341074285
H         2.08073693027859    8.29491823400618    6.57529629553262
H         2.74450865561702    8.55323800168275    4.93285069246869
H         2.96794830683836    9.79738817555666    6.19743786802133
Se        3.76143982722243    7.92408444562640   11.23059139558336
C         4.47266066130703    5.38861676952238   10.06329466561776
C         5.01741946586153    4.09429745917978   10.14313623480815
H         5.24733572144496    3.56675125614892    9.22986485820643
C         5.30249805673054    3.51257454294581   11.35728186701975
H         5.72522216210977    2.51806830839303   11.37453949457076
C         5.06798613875408    4.17155507267706   12.56252240577388
C         4.58202161071457    5.46829375667819   12.50256767637738
H         4.41511244119636    6.02772978756049   13.41379325921123
C         4.31964934534559    6.07168929470941   11.28564113320837
C         5.38064820057549    3.52029363208175   13.87554916077863
H         5.20648000984341    2.44783187913063   13.82404294486102
H         4.76799687200543    3.93893041788764   14.67059194031980
H         6.42833615737222    3.67803858825962   14.13601601191396
C         5.45537599468283    8.73073045179028   11.78992965931660
H         6.26783596103133    8.29406268592774   11.21070897519172
H         5.60389747630293    8.55389352172975   12.85304030478392
H         5.38086822116604    9.79714493255635   11.58732526660798

