39
CSD_code = USIWOK | q = 0 | S = 0 | Stoichiometry = C16H18ClNPdSe2 | MND = 4
Pd        6.42699927909087    1.46975153951310    2.96850915612024
Se        6.05410042808290    1.55437985813128    5.28205566927313
Cl        6.42490775515545   -0.79793242529386    2.96877435725409
N         6.42787633443469    3.50032386874100    2.96843055354744
C         6.69619179721826    4.12935038435699    4.14836694563368
C         6.51858217500594    3.43412174169843    5.36202776021638
C         7.22232407325114    5.43163135913410    4.25368490470194
H         7.47744204702020    5.96847614525000    3.35244042396718
C         6.73363323198070    4.03344314662568    6.59174002818624
H         6.55072360851796    3.46027896356664    7.49137063018139
C         7.45492634550640    6.00874769896146    5.48010066869657
H         7.85975675026167    7.01019440754834    5.51904222128951
C         7.18876907288307    5.33901763411153    6.67430372516316
C         7.88976892251425    0.88160158880428    5.54068300239154
H         8.53469044349911    1.30970163977317    4.76043222099800
H         7.84942354599220   -0.20292463060481    5.43855739361751
H         8.24129869982480    1.16323429321920    6.53125762383391
C         7.43721473088290    5.99866044002500    7.99658470940410
H         6.96218710497706    5.44340000772040    8.80135742872786
H         7.05006255279882    7.01587106758963    7.99571377331209
H         8.50742487311932    6.04971903574131    8.20005010442352
Se        6.80225227685141    1.55422976303674    0.65534015889718
C         6.15999210206990    4.12938412347146    1.78837331889270
C         6.33763277461532    3.43394711162288    0.57486014402629
C         5.63414844960576    5.43174568026315    1.68283944423211
H         5.37908898617730    5.96878619189018    2.58398345758127
C         6.12264138712931    4.03304046682349   -0.65495653249471
H         6.30560984857891    3.45974042088748   -1.55448872137094
C         5.40158669182607    6.00865244580671    0.45630674688267
H         4.99686343675571    7.01013521618945    0.41718642513400
C         5.66756647812174    5.33862297948005   -0.73775706663690
C         4.96757218859110    0.88099205208037    0.39259569772986
H         4.32041763264918    1.31080495591447    1.16995231399863
H         5.00760284302000   -0.20333995074640    0.49712802494045
H         4.61905962810178    1.16050126427563   -0.59965894380025
C         5.41903827051056    5.99792274187786   -2.06018073865144
H         5.89380110949021    5.44229434930088   -2.86485448158455
H         5.80641743573476    7.01504707573235   -2.05969039581480
H         4.34880468814925    6.04914534748979   -2.26346215290245

