85
CSD_code = USIYIG | q = 0 | S = 0 | Stoichiometry = C39H39Cl2N2OPRu | MND = 9
Ru       16.04807608842258    6.62009856923724    1.88790900847020
P        14.08359353990750    7.53404820535286    2.55864097897851
Cl       14.60538798845697    4.94215007810463    1.05775349734548
Cl       15.78697574459030    7.89701319818534   -0.07267310452850
O        13.63098522822517    6.92215520868817    3.98069899074896
N        14.08746165145742    5.13618386339984    6.34081392231411
N        14.86300787442985    4.06552258773687    6.20733657057554
C        17.16713906728782    4.99233240496975    3.04136654658601
C        13.27846168412155    5.54209109245604    4.05938590668649
H        14.11110574157698    4.91179885726378    3.72747191203402
H        12.41995440643981    5.34412110533160    3.40930209956192
C        15.84345508084871    5.51886879762157    7.59811518570514
H        16.52626838314511    5.95895647390189    8.29556080535070
C        14.12801708198491    9.28471063795609    3.02000706939940
C        12.91607977616284    5.23200803951871    5.51220276485094
H        12.26825650597790    6.02361346536440    5.88856842491548
H        12.39985647664744    4.26963212019275    5.54649983171360
C        12.51240906129919    7.22993589562325    0.21563494456257
H        13.43140511654145    7.02540181870810   -0.31318164661379
C        12.54141786042092    7.48925090220394    1.57830110590196
C        16.90991370955832    6.06085077744946    3.91514210553894
H        16.44816477048679    5.86975797088539    4.87609008297248
C        10.15430030929812    7.76833104280843    1.58392659480428
H         9.23777073926770    7.98049207822190    2.11545946600553
C        11.35915772444218    7.76902085817770    2.25994346412673
H        11.39439992513807    7.98869298791723    3.31901370157391
C        18.03239750774924    7.64438564591683    2.40530033659196
C        14.19609940981017    9.70830836872733    4.33930475497091
H        14.20593809616047    8.98068222013922    5.13659472274635
C        15.93425792931103    4.26078515270037    6.97242049397892
C        14.88074456498702    8.46246039300138    7.59286102360001
H        15.91694943865790    8.36995065053520    7.30065865500961
C        17.32242582741320    7.37981929729709    3.59108908519049
H        17.15293594512962    8.17543289894094    4.30867182766947
C        18.31354986562533    6.55001975619841    1.53804623537932
H        18.90192577836008    6.72881505746567    0.64318497114118
C        14.11602441363632   10.21530994490425    1.98545666435524
H        14.08124771716251    9.86317480125428    0.96339094308360
C        14.64120937400706    6.05622722642720    7.17374755078837
C        12.72915439583045    7.46153121317591    7.95107772286273
H        12.09235990582416    6.58924714394789    7.99118572884415
C        17.89053964389727    5.25690554764430    1.84108361615537
H        18.14694493437168    4.43002018055265    1.18726802702618
C        14.22185498271161   11.98999743422197    3.59436618114082
H        14.25576530792356   13.04570116885435    3.82076740236444
C        11.30142306942752    7.23530924402211   -0.45576824326611
H        11.27951835217310    7.03019439587388   -1.51535870872298
C        10.12475808602453    7.49815837974846    0.22455912599466
H         9.18196357817916    7.49566567138925   -0.30274979714984
C        16.99148834175610    3.26604492737047    7.06770460042622
C        14.16362581194247   11.56576025055845    2.27556880934484
H        14.15522085843686   12.28945403024468    1.47446862494247
C        14.38065772369552    9.68552574379293    7.99787395133624
H        15.03299766020056   10.54598906080371    8.03230349010474
C        13.05005619408405    9.80567271801339    8.36239922129111
H        12.65649656104728   10.76171759990967    8.67346985930116
C        17.76073184229367    1.01552344318021    6.68613686316240
H        17.57398677710206    0.01302232027115    6.32958354404631
C        18.23767661330467    3.58594944913913    7.60184795463593
H        18.43314118414573    4.58860821447158    7.95229147145099
C        12.22969365387572    8.69043877688305    8.34205513691975
H        11.19647652709303    8.77466812533773    8.64516844394513
C        14.23713063948874   11.06235039153941    4.62262778316791
H        14.27867916859934   11.39130605484186    5.65083839734152
C        14.05897114242124    7.33662052626261    7.55529207554472
C        18.99680957740965    1.34125691878832    7.22159003912526
H        19.77533127508620    0.59511045277151    7.28367377012563
C        16.76444074667346    1.96844544010354    6.60942506217258
H        15.79649645284179    1.72673613129346    6.19832107304828
C        19.23104056165678    2.62776828155473    7.67777386016146
H        20.19421106519550    2.88573869561344    8.09428139089743
C        16.76285539798834    3.58859924323898    3.36776169425300
H        16.18833245156807    3.54530121002078    4.29027673965096
H        17.64756423544026    2.96015196556461    3.47510196123272
H        16.15359483999243    3.18426249682851    2.55758115817958
C        18.61798106681253    9.00645226418514    2.11592011426404
H        19.02123881129971    8.99196694333185    1.09715898089111
C        17.56686706829474   10.11342205679262    2.18259486295626
H        16.75627779847962    9.89019367441572    1.49181071997728
H        18.01109972417780   11.06426941326500    1.89878271061739
H        17.15225294418326   10.21491631994433    3.18339720716502
C        19.77061450502744    9.27598216669083    3.08967761778107
H        19.40517118385582    9.32577432676267    4.11342367120578
H        20.24513428377392   10.22384873500654    2.84819026471654
H        20.52024565066977    8.48891080142607    3.02857832535251

