65
CSD_code = USIYAY | q = 0 | S = 0 | Stoichiometry = C21H35Cl2N2O3PRu | MND = 9
Ru        9.65463363140824   12.34134042886932   12.26055993667306
Cl       11.16186402753729   10.52805822058354   12.18862522183685
Cl       11.38432787831256   13.72879966633071   13.03068659229412
P         9.51563893432901   11.74369077315894   14.42584034682227
O         8.94469768047028   12.94970319957700   15.28731973639677
O        10.72286289465175   11.12265661874333   15.27098783142217
C         8.43615803311221   11.41149875126169   10.57345211842821
O         8.44315178725689   10.59695606447529   14.73319449914185
C         8.45414854894536   14.11382789743558   11.51759304582800
C         9.32774193325189   13.69319527750163   10.47177410875258
H         9.98346646205002   14.42415126659278   10.00905034801393
C         9.32564629637748   12.37571784396997   10.01168539280521
H         9.97332531387747   12.08104631819540    9.19252846087257
C         7.55270876467097   11.82621107585627   11.58303179620120
H         6.81303059301185   11.13344442462652   11.97033441009286
C         7.56958533505188   13.16508246527316   12.05914255245253
H         6.84701736101408   13.46317632535713   12.80899177643433
C         8.43042188767199   15.56459327506979   11.93220322824699
H         9.38545705956257   16.01218802373678   11.63597808142074
C         8.28355686457781   15.73926023447065   13.44289660246077
H         7.29009608682660   15.45584897286205   13.78303260912575
H         8.44891451619945   16.78029302375274   13.70849662932119
H         9.01991625120677   15.12680830796311   13.95980724644922
C         7.30006252131601   16.27687681856550   11.17990766853089
H         7.43056842520298   16.18233714977818   10.10337987646469
H         7.29330133567082   17.33342521327051   11.43523101590852
H         6.33525041394939   15.85029221253531   11.44888986778788
C         8.57758752369812    9.30933139525091   14.12766137212349
H         9.38888926733794    8.76650820252857   14.62016932949009
H         8.84677908581364    9.42878629323591   13.07203446242381
C         7.26148780983748    8.56829839782561   14.28183612435116
H         7.01453725323645    8.46052253063338   15.33468402008410
H         7.34201080075346    7.58259693188017   13.83278991025828
H         6.45854271483694    9.11680894664334   13.79583318131783
C         8.71826959158114   12.83851499938088   16.69938235699130
H         9.08868281289419   13.76942908888061   17.13757346803915
H         9.29258817136180   12.00125603262434   17.10348483570248
C         7.24040302967117   12.64896211553104   16.98758191838017
H         6.66953052431254   13.48243509658802   16.58661511977163
H         7.08301310929312   12.59411494827544   18.06140344216265
H         6.89288421359960   11.72926119399507   16.52522651380630
C        12.03474814575567   11.68397534423057   15.33557451828329
H        11.97208057043987   12.76144463712189   15.50911455716423
H        12.55393453675710   11.49828723801315   14.39053912216350
C        12.75987338334799   11.00540621622411   16.49900713514007
H        12.83631584638967    9.93285866086001   16.31459163221689
H        13.75647246328983   11.44297178149128   16.58725992975279
N        12.05655347710454   11.22344300585632   17.73201250578835
N        12.17845867844837   12.39224385997636   18.36708556310662
C        11.35197684525824   12.34985640793927   19.39613959390104
C        10.67009144698027   11.11925223737185   19.41833127697276
H         9.94168772585343   10.79228872221255   20.13269927231422
C        11.14217140011431   10.42060816849851   18.32766144758473
C        10.79585037954536    9.06534780905457   17.82715443135460
H        10.44874483230059    9.11837119886063   16.79639696202890
H        10.00798213335792    8.64143883377198   18.44420393481242
H        11.66120340561815    8.40272096882459   17.86652194433812
C        11.22452079571769   13.48551860544278   20.34787856113418
H        11.53639802730061   13.18151308118392   21.34646477386508
H        10.18947110488908   13.82073370948369   20.40325900338678
H        11.85160314523383   14.30716871936859   20.01480346221855
C         8.43857259775878   10.00787574809884   10.04961143194052
H         9.39289587669254    9.53279304751342   10.28866491552559
H         8.32539578957145   10.00690991311575    8.96586191062646
H         7.63664064650524    9.42036606243536   10.49196505929334

