51
CSD_code = USOFAL | q = 0 | S = 0 | Stoichiometry = C14H24B2FeN8O2 | MND = 6
Fe       -2.27442821164790    4.32673995635254    5.72356651321364
N        -0.93233764878444    4.74457194737912    7.11059281707590
N         0.03042411934928    5.66105331025718    7.01678180976442
N        -0.89074959354446    4.78539826312893    4.38995281764265
N         0.10789464362810    5.65337724872284    4.55001684296246
B         0.24762043588342    6.56040785437067    5.78341315081451
H         1.35361729548315    6.99362543094762    5.81774745649457
H        -0.57318555642655    7.44307330085431    5.75160119490573
C         0.79026970282114    5.63384504988509    8.11617205011916
H         1.62062065477682    6.29990824158413    8.23418859979324
C         0.30254680401099    4.65860501278605    8.96464700154746
H         0.67513309036152    4.37758232240687    9.92829868044031
C        -0.78249625311628    4.12473838661959    8.27828051103793
H        -1.45419220217614    3.34579292062400    8.57844365935204
C         0.97052347010514    5.54409047574073    3.53434207648720
H         1.84202379451285    6.16414986667959    3.47678576617753
C         0.51659225472604    4.56020291617177    2.67735370461009
H         0.96722996065503    4.22166301521725    1.76696991603512
C        -0.65779212976413    4.10755185118024    3.26938387923074
H        -1.32874581127463    3.33981666534391    2.94281400412127
O        -1.53242759814042    2.24408877343770    5.53925876955992
H        -2.30997461757783    1.67723297007130    5.67796039827487
C        -0.39228595600358    1.63854381340135    6.10925595958865
H         0.44042496212918    2.32491553925478    5.96935292737842
H        -0.16780010327305    0.69600724935638    5.59931796728363
H        -0.51902878568334    1.44926415781742    7.17840646526941
N        -3.61636400348384    3.90872270361813    4.33653212245665
N        -4.57901572323323    2.99214015024848    4.43037724214620
N        -3.65806844127543    3.86792808522403    7.05730594994636
N        -4.65663450349615    2.99989369584273    6.89713708100934
B        -4.79602425224455    2.09278541637818    5.66376997790765
H        -5.90180870670838    1.65905048686030    5.62939029255509
H        -3.97492490772862    1.21044123108912    5.69571109067911
C        -5.33889666465194    3.01925702508533    3.33101568052743
H        -6.16917998260148    2.35310448711957    3.21304101176815
C        -4.85134316752873    3.99458868460578    2.48254676862633
H        -5.22401342582864    4.27561130195189    1.51892875451563
C        -3.76633793884065    4.52857298755046    3.16887071964346
H        -3.09480411377428    5.30765758018866    2.86871940206671
C        -5.51931334139151    3.10901772934738    7.91277281205371
H        -6.39078121365539    2.48890220612512    7.97021676776335
C        -5.06551731286840    4.09290059549096    8.76983994207297
H        -5.51625377408012    4.43134167728247    9.68021194040715
C        -3.89116435789494    4.54571928102211    8.17787943132125
H        -3.22033318953885    5.31353316344124    8.50451592484802
O        -3.01598418476360    6.40954363385440    5.90789239685043
H        -2.23768422088951    6.97575616017909    5.77092483841951
C        -4.15432545907401    7.01629032661937    5.33551110032291
H        -4.98765942031913    6.33000542190082    5.47192909402218
H        -4.37993198804301    7.95813325447789    5.84621956089321
H        -4.02441242711438    7.20715617490622    4.26703515799671

