46
CSD_code = USOGUG | q = 0 | S = 0 | Stoichiometry = C19H20ClN2O3Re | MND = 6
Re        2.16591820139765    7.08799706521005    6.65062842023188
Cl        1.31790258219059    9.15939233145587    5.86707959742273
N         3.85792749538887    8.38294310773024    7.31783824193753
O         0.32506993442605    7.19802601260069    9.13740542922252
N         3.36257683510687    7.32197104465710    4.89029905729713
O        -0.14844647816776    5.69129512512139    5.15843939944514
O         3.61571197740158    4.50472931756900    7.53325595425996
C         4.13457515325980    7.69203764393690    9.61583277112561
H         3.22586375153309    7.09649894892312    9.49929015998967
H         4.98623323775880    7.05748422112559    9.35692802375374
C         1.03777701761815    7.14713131644176    8.23945947949269
C         4.30735180082964    8.27189718971095    4.99597274387531
C         4.09091661519876    8.89361972245836    8.65856362064595
C         3.05500379006650    5.45594011037331    7.21258813802209
C         4.55170072880270    8.78981061749228    6.32690692362229
H         5.34682059417710    9.52470730983450    6.41208605532652
C         5.02071138751800    8.73734571018108    3.89157136921980
H         5.76581351547220    9.50690416062121    4.02368556329127
C         3.11368819706595    6.81520336383112    3.68846268078293
H         2.35163423428666    6.04846672240532    3.63635878823432
C         0.71358073070291    6.15902721122351    5.74763386420086
C         5.38432927171479    9.70104419031333    8.83105018302429
H         5.37083412202813   10.58896862214639    8.19318651494802
H         6.24840736952549    9.08691341191907    8.55946092974405
C         5.51754156199978   10.16641801947103   10.28339252491084
H         6.44961293774526   10.73459959209727   10.38320952640004
C         5.55005277097016    8.96410502923043   11.22294619038833
H         5.65500730910455    9.30412384430163   12.25491914796186
H         6.40803619493060    8.32884021366680   10.99075218979409
C         3.77351352037120    7.22728601479315    2.54336668577425
H         3.52337425618910    6.78655443322605    1.59195473777915
C         3.05652607226571    9.05587297647207   11.40206128232759
H         2.13242013816315    8.48658394007288   11.28756302521713
H         3.12342123715784    9.38621487834946   12.44056378536704
C         4.25479822466032    8.17257876791833   11.05942929209265
H         4.26926700940588    7.30074991848759   11.72142599261444
C         2.90727270000134    9.80566194665958    9.02471202345636
H         2.89434544382922   10.66481238901580    8.34919961439964
H         1.96903910965670    9.26654557564583    8.88662626178710
C         4.74566202181634    8.21319674599687    2.64390375811204
H         5.27270787852314    8.56318264962426    1.76967854451501
C         3.03915965539737   10.26815366111431   10.47269338221416
H         2.18245601865737   10.90473345255088   10.71643985321308
C         4.33300907137548   11.06215576272870   10.64125431903205
H         4.42824607247306   11.40758838880248   11.67248434265368
H         4.31902873000414   11.94248732249302    9.99433961087321

