41
CSD_code = USONUN | q = -1 | S = 0 | Stoichiometry = C15H17N4NiO4(1-) | MND = 4
Ni        5.76183983836669   13.02393972792474    4.78986407090465
C         3.62332239171960   13.66947969426480    6.85591497418868
H         3.00736778776675   14.54640143313626    7.08024459085666
H         4.05541960808866   13.31212399828617    7.79881008544490
H         2.99010357436691   12.88885198198801    6.42912272601385
C         4.83940279838646   15.40600018747663    5.81848604849716
C         5.89282367970500   15.77256778524014    4.76118047598019
C         7.29509196716349   14.57648012887905    3.15478007094452
C         7.91744497553876   15.64096551619151    2.51345050278412
H         7.68739719417354   16.65059213371510    2.81145952092696
C         8.82807029547416   15.37968958923895    1.50043868912077
H         9.31501507416596   16.20788244918715    1.00199095064711
C         9.12314842841015   14.08159294978974    1.11879333355795
H         9.83700327412287   13.89990968983750    0.32601886081854
C         8.51049475261665   13.00510706051554    1.74484703703528
H         8.73313140089490   11.99106541439577    1.45295001981817
C         7.59878836327517   13.24958463681600    2.75952753807652
C         6.89561566864436   10.99571155850454    3.31944107663029
C         5.99507584990587   10.35739740909546    4.36606667505420
C         4.67322312558228   10.50566184279061    6.28639537330053
H         5.19329068347560    9.61419847400719    6.65017725072947
H         3.69253555377922   10.19709467205365    5.91234671546557
H         4.53926234491688   11.20917586045499    7.10219028583957
C         6.32649185578168    8.07757038918239    3.58416849420702
H         7.35758309206496    8.34065198555616    3.33062834468344
C         6.28408860542527    6.74426630799388    4.32414614118186
H         6.86651458554088    6.80466565682816    5.24032459144118
H         6.69525185597526    5.95954708870710    3.69549033558845
H         5.25702820755652    6.49506415459001    4.58169206292707
C         5.48513419080091    8.04539847655597    2.31207328630814
H         4.43429824425586    7.90691347915524    2.56046825486085
H         5.81381261295266    7.23008117406975    1.67329313275517
H         5.60763991875933    8.98016683240518    1.77199213377171
N         4.65921341764556   14.07029498074101    5.91498237025106
N         6.35954764782844   14.64286275200095    4.18097093520778
N         6.88622853371574   12.30899483334354    3.50583871687734
N         5.43425842693718   11.14029110675996    5.22772760029680
O         4.23086752125297   16.25217486734563    6.47055213112397
O         6.22635747900184   16.92137551524824    4.50146860754443
O         7.51720479965719   10.33186447520221    2.48002353754922
O         5.79421037430608    9.04004173052475    4.50006245078808

