60
CSD_code = USOQUQ | q = 0 | S = 0 | Stoichiometry = C28H24N3NiO2PS | MND = 4
Ni        7.94967817779617    1.42195922152479   18.01625063931311
S         6.84502519183395    1.04151477695222   19.83859270471496
P         6.48963359504559    2.84224547855747   17.23424692079891
O         8.82101936443715    1.61973736660596   16.37151252251260
O         9.95128062456069    2.86172636989860   12.74943586256351
N         7.81135445865944   -0.50568822454609   21.76054659782023
H         6.88241559804693   -0.41574440562522   22.13160562054944
H         8.40321069047478   -1.24160563393632   22.10494840502351
N         9.14803613846783   -0.30625013572274   19.90314755119530
N         9.31192632285566    0.28984239130242   18.69374184002961
C         8.05094969193792   -0.02042024727706   20.52324063582534
C        10.45131502873482    0.04609475272853   18.11369910094211
H        11.14533673277477   -0.57829935365750   18.67406136296587
C        10.87510727706293    0.50245808058060   16.83479434345053
C        12.16273393597559    0.18728600766705   16.38672174315618
H        12.80383612756657   -0.39430917764887   17.03570467367033
C        12.63806520202052    0.59603427214831   15.15376373725437
C        11.78532302854417    1.32596623106017   14.33593819749696
H        12.10675573297997    1.65448011618380   13.35759946267603
C        10.49215716024840    1.65476544978605   14.72194420177123
C         9.99862505559746    1.27023049829931   16.00501154657808
C        14.03096893755086    0.24937656509904   14.71897113733664
H        14.23203687302841    0.64093316903784   13.72564245942275
H        14.16804398325905   -0.83118204116543   14.70131446368125
H        14.76124332669128    0.66668858972635   15.41137759963716
C         9.62115903386737    2.38008898792989   13.81054796993243
H         8.57824556242605    2.45847368355540   14.16829598284404
C         7.23317370285810    4.02452579206885   16.06944719896094
C         6.69775292816719    4.32170494727979   14.82355986767610
H         5.78409813110883    3.84672420587357   14.49631222201693
C         7.35281890704558    5.21243082016697   13.98963217934572
H         6.94139740951661    5.43530935964375   13.01652580233121
C         8.54126529607495    5.79952918432349   14.38870511566483
H         9.05603504926453    6.47842210260863   13.72602424833158
C         9.07997479058236    5.50233102010721   15.63092359199058
H        10.01289348838758    5.95151815651490   15.93873177001761
C         8.42809778161261    4.61816871479826   16.46832780459211
H         8.84661324856267    4.35820115537345   17.43451025949548
C         5.40607106520684    3.89547121956303   18.25335669694104
C         4.41521526773064    3.27439434602728   19.00991043021574
H         4.31476157443469    2.19832220246579   18.96942593588252
C         3.57573948516392    4.02822321768990   19.80651578537563
H         2.80726711168846    3.54248604501301   20.38951976494180
C         3.72219223259573    5.40608365635754   19.86035742759527
H         3.06652935136604    5.99535715332662   20.48431689103465
C         4.71301966527553    6.02586354660030   19.11814392830323
H         4.83084343832937    7.09901321852194   19.16187435411504
C         5.55755828610948    5.27541999203384   18.31805521670006
H         6.33066561758506    5.76254349414465   17.74053449099240
C         5.27184389066627    1.89983761830903   16.26746426887989
C         5.56437858934391    0.56606614010246   16.00346875433632
H         6.49222679788713    0.14567916304262   16.39388210240724
C         4.68505241281731   -0.20790750907024   15.26874625840268
H         4.91336244048503   -1.24352951599535   15.06452016607435
C         3.50665209778641    0.34960609236714   14.79922893491545
H         2.81730525115157   -0.25130830073833   14.22472884950807
C         3.20381586737703    1.67458864701378   15.07292481905570
H         2.27908213170638    2.10188909826788   14.71314935439361
C         4.07961446158065    2.45211898706434   15.80873354429280
H         3.83719937810458    3.48071324007196   16.03878468205314

