47
CSD_code = USULIF | q = 0 | S = 0 | Stoichiometry = C18H23Cl2NO2Ru | MND = 9
Ru       12.64938894020030    3.32952489466139    4.61081887020490
Cl       12.66820585357447    1.51768356880364    6.09919873050860
Cl       12.28618115884209    1.78066329243377    2.88659795653402
O        10.36032005097710    6.06165049812720    7.72358325537768
O         8.76157165114551    7.53609589758402    8.19929795502190
H         9.47100828922644    8.18766577424611    8.08255065328028
N        10.69245958008400    3.34718594251829    4.90811232696487
C        12.86412867104240    5.43031912298971    5.44118665354671
H        12.16719623589400    6.01128465090426    6.03639761651799
C        12.84781075454647    5.55355697970000    4.02344553346490
H        12.15253948095402    6.24673234253709    3.56457840117110
C        13.76659473490421    4.85272768804754    3.23021972867711
C        14.71944632887342    4.01650164741807    3.88679639259102
H        15.47131907812066    3.50709006616448    3.29203352996886
C        14.74277843187198    3.90789263333101    5.28041001376850
H        15.50744995263000    3.30907571910834    5.76559149422582
C        13.81221132312939    4.62628959935860    6.08829778178422
C        13.86091978543796    4.51225731473528    7.57973340288035
H        13.05819508832048    5.08826112072371    8.03512338655934
H        14.81855870683121    4.86828514163948    7.95975683593237
H        13.75130498590609    3.46436116194913    7.86465114548974
C        13.83386980849208    5.04625918193686    1.73417066685543
H        14.53439132110606    4.30850046533278    1.32880044459879
C        14.37388518066095    6.44765950823328    1.42700223431420
H        13.68761046719650    7.21246994889386    1.78473092337183
H        14.49533145054109    6.56988025640768    0.35368771803383
H        15.34019516381718    6.60169802504620    1.90363345798448
C        12.47833868992141    4.81368612915303    1.06672009352247
H        12.12076152982351    3.81649942856600    1.31818120821153
H        12.58206897433072    4.88348497695214   -0.01319613789554
H        11.74528911635016    5.55050963668252    1.38821471983645
C         9.77901074594106    3.34164045518468    3.93308050785503
H        10.14980571933917    3.19859771793490    2.92543269109366
C         8.42738343256850    3.47433120688167    4.19186283648662
H         7.72535140884121    3.45157750540044    3.37373049871642
C         7.99533130474157    3.63388610416366    5.49823762306462
H         6.94419936404553    3.73777565878232    5.72266581152139
C         8.94300932439559    3.64083071471340    6.51752478439173
C        10.27406421924986    3.48530754960392    6.16915522324017
H        11.03666136817323    3.45642006881798    6.93768809507793
C         8.55758319252169    3.83975833719002    7.95470143202381
H         9.40783961163852    3.59853281646394    8.59244784257797
H         7.73171756800597    3.17275432258455    8.20761992479630
C         8.11638981877874    5.28179588651622    8.22056748409487
H         7.28639251381814    5.56502445305240    7.56985209371151
H         7.76956289045758    5.38867223234105    9.25084142948095
C         9.21666673274593    6.29124235617564    8.01326472855631

