137
CSD_code = USUMAY | q = 1 | S = 0 | Stoichiometry = C72H60AgP4(1+) | MND = 4
Ag        5.66613750065652   18.32036992531492   12.88517292224292
P         6.48368646434825   17.21677998978721   15.10667380453159
P         7.66202002748621   19.50627872824415   11.70042272654498
P         4.68939555928137   16.47600174425278   11.31095733652919
P         3.81833303906249   20.07150327477613   13.44207614293404
C         3.36375313227647   15.42687558077752   11.99755521212646
C         3.11106366884127   20.97829553886727   12.02612656908258
C         7.30693994391646   18.31343723450977   16.31035992945676
C         5.20701530910581   16.42614812808150   16.14285655296281
C         7.28277035082639   20.32198772259321   10.11332875760795
C         9.07354239708896   18.44129344779514   11.25030997232574
C         3.91985370017599   17.07494271469866    9.76868158430516
C         2.26039810565155   15.01287979939959   11.25848714014457
H         2.15942748954848   15.30394916072642   10.22258015233860
C         7.05246444811182   18.28074166292529   17.67735870896544
H         6.34426374240894   17.57217075229729   18.08277887368143
C         7.71085227294461   15.87918464322871   14.92583384524636
C         7.55263507704850   15.01325761629095   13.84712754780083
H         6.72450462092811   15.15889380030378   13.16359344663533
C         1.29037723970742   14.22698701712946   11.85559852100815
H         0.43526856456913   13.90610018384101   11.27965248095212
C         5.63885343389071   13.86426142961026   10.73257037283098
H         4.71076357315581   13.48207028471395   11.13330374534996
C         8.44710918608812   13.98148333929926   13.64017845811175
H         8.31415695006178   13.31719947145594   12.79936183469268
C         2.32336710138402   19.43536876865618   14.27219736133102
C         4.30361615498325   21.44040607405520   14.54669738800230
C         1.41143898772477   13.85177307205958   13.18418141205273
H         0.64887257882391   13.24077002286505   13.64311411836420
C         5.31245063508776   15.12956922635551   16.63394315440607
H         6.19245422887882   14.53785338673719   16.42506488186477
C         5.87130741541730   15.23438833152246   10.68672207013030
C         7.07771324643079   15.71168531818675   10.17958422795953
H         7.26159495612579   16.77903824360735   10.15572564768392
C         1.86523279742386   18.18109076794350   13.87913601515622
H         2.40430806799997   17.63183808924030   13.11656582227242
C         3.03466583118238   18.14410633230076    9.88446504904562
H         2.82921987706510   18.56312069227323   10.86230263343764
C         3.47814718481991   15.04990166374810   13.33291836348450
H         4.33117669076385   15.38563026643678   13.91046026882241
C         7.85897001056880   21.52442090655331    9.71608826916308
H         8.57028995516929   22.02493458251264   10.35795849810506
C         7.79767987938491   13.46876669433832    9.75284612601623
H         8.54508657378810   12.77951386095470    9.39005423208301
C         8.48436018822571   20.85379661628005   12.61602286219303
C         9.47592151208934   17.49711459670969   12.19130957790340
H         8.95417810585161   17.43251040023949   13.13866821248075
C         6.36038054937644   19.69380667562054    9.28155059526102
H         5.89744831424548   18.76821159071672    9.60211412765553
C         9.51408163213064   13.81200282294357   14.50868165556574
H        10.21782653759283   13.00907298743583   14.34906607063413
C         1.64792252458953   20.13264091586865   15.26842669963671
H         2.00078905413631   21.10280626729376   15.58854066682769
C         6.60299881500150   12.98838312501893   10.26397765882494
H         6.41836508546703   11.92492800703713   10.29866601424675
C         1.74531716844995   21.12936486583973   11.81341598480619
H         1.03524128486732   20.70946476597414   12.51190639794578
C         8.78479383443949   15.70818373065848   15.79299334612851
H         8.92151016982706   16.37986356688572   16.62857137684591
C         9.86453244968368   20.96378120782445   12.74793005027396
H        10.51599496051346   20.23627798417122   12.28464204986645
C        10.52804014399523   16.64419013220316   11.92151379365095
H        10.83139729609913   15.91626681712478   12.65908836494336
C         0.52160634391068   19.57800732734572   15.85069594175222
H        -0.00195582297712   20.12179261054119   16.62292557480455
C         4.06112574945801   17.17235288147916   16.40819032741458
H         3.97610447961201   18.17800302727280   16.01470980881285
C         9.68060080766895   14.67501085581169   15.58005822552534
H        10.51278746735929   14.54352945912995   16.25546530079832
C         3.89477643736660   22.75694327325040   14.35977387444758
H         3.25463294943038   23.01515919494579   13.52792464084805
C         4.19630683963929   16.54418492341076    8.51343768089591
H         4.88570086849292   15.71822063750388    8.41076570037624
C         4.28350632102454   14.59670566454210   17.39135238838912
H         4.37022707368673   13.59077569139255   17.77468736460941
C         4.01371243300261   21.51248672451636   11.11017375063917
H         5.07685426930420   21.38121174153535   11.27075183531827
C         2.50869029761208   14.26350702300691   13.92431057537202
H         2.60779144684873   13.98019029231444   14.96154327052346
C         8.21655487627280   19.23687163307159   15.80162019911803
H         8.40270018828029   19.26937968644217   14.73483703332663
C         5.13502716039102   23.41513495252454   16.31059750182853
H         5.45720121026280   24.18609053537294   16.99415222118014
C         5.13562880266286   21.12454081231058   15.61702984771509
H         5.46766280105099   20.10202519809011   15.74991038271754
C         3.14945104770845   15.34604448407607   17.65915905260381
H         2.35124304973806   14.92385911989559   18.25069960377191
C         7.65762480484408   21.79208176554318   13.22884415643093
H         6.58261536716725   21.69590280984415   13.13815227247168
C         8.03474355022579   14.83403131028143    9.71007081001965
H         8.96506339841718   15.21493676898939    9.31640024712094
C         7.70858017160511   19.16217279616086   18.51888572013680
H         7.50991381641066   19.13328558741008   19.57988467943085
C         3.56142043488962   22.20329239329225   10.00357111646455
H         4.27042778642526   22.61537614386939    9.30126814283082
C         4.31233497611099   23.73721250806909   15.24294572997248
H         3.99230328738586   24.75810139086854   15.09622080749488
C         7.51639809020876   22.07905798463965    8.49537313017910
H         7.96559960265994   23.01196535570791    8.18871234994467
C         8.61559695037642   20.07625168852518   18.00745440538816
H         9.12183248440162   20.76157085549450   18.67034574142709
C         5.54770585545895   22.10526896736248   16.49794726117784
H         6.19433705969300   21.84731775006021   17.32333793346872
C         3.03873210276568   16.63706107927796   17.16632631113304
H         2.15597742859265   17.22484177282719   17.36848500394248
C         8.87100243501094   20.11262163977942   16.64541455386024
H         9.57283298059059   20.82541426343201   16.23915914662209
C         9.72972377422989   18.51468327248826   10.02624514247244
H         9.41973177871714   19.23693802624554    9.28427066105836
C         0.73887142923349   17.63249504571159   14.46052992022037
H         0.39370910569644   16.65861326902554   14.14685759022036
C         3.58554446414057   17.07916204903480    7.39228906078654
H         3.80126412350181   16.66370730164935    6.41909985197434
C         8.19955225046727   22.83493149581787   13.95385023633479
H         7.54852299169081   23.55645198261288   14.42424712881670
C         2.70254316990731   18.13976709736626    7.51376001301398
H         2.23163172265179   18.55281921494497    6.63453259264553
C         6.60399114909950   21.44400992767816    7.66768571470075
H         6.34198121792288   21.88366831285071    6.71715287159896
C         6.02430143038880   20.24840645424642    8.06199242065043
H         5.30696280820971   19.75095688470802    7.42643552450877
C         9.57589781198475   22.94417290773861   14.07928181758360
H        10.00366345507802   23.75610300305048   14.64778809762312
C         2.42537730737149   18.67211304969864    8.76351011337205
H         1.74111072300029   19.50103167270390    8.86492263209364
C         1.29653231780148   21.82045049440425   10.70106921674486
H         0.23517088654878   21.93979360781491   10.54059676272554
C        10.78219375144990   17.65624708153329    9.75928802601956
H        11.29164059516971   17.71720400348419    8.80889462136942
C        11.18310172878335   16.72360036414813   10.70247339768661
H        12.00367059888026   16.05639250892588   10.48592346539955
C        10.40316140629035   22.00944447981319   13.47786243022632
H        11.47528038391048   22.09346448825899   13.57647252657067
C         2.19932473741490   22.35846937222015    9.79830547511782
H         1.84163268461375   22.89615506119411    8.93332249751269
C         0.06475766862276   18.33295779962442   15.44841284721668
H        -0.81430475073298   17.90726062277207   15.90819803812068

