78
CSD_code = USUQAB | q = 0 | S = 0 | Stoichiometry = C27H45N3Si2Zr | MND = 9
Zr        3.83216179617112    1.27428172813998    1.42691931217336
Si        2.59021159003820   -1.02625234360978    3.09904757824005
Si        4.25663332524058    0.99947802534280   -1.60012815345074
N         5.41915735748352    2.14331275166402    2.51088838159224
C         3.51603783728634    3.58914358141005   -0.87087778016173
C         3.48655406776722   -0.86182156756190    0.41432187063918
H         2.51208724074891   -1.07188357073188   -0.02147272486932
C         5.24404341584960   -0.82528974928935    1.85188168996783
H         5.87802252569036   -1.02505079254583    2.71129972933372
N         3.61695847057766    2.17751773717419   -0.51300841951750
N         2.41087497961977    0.67944618761508    2.91626764163510
C         3.88258034183655   -1.20184146476236    1.73434248662075
C         7.84705372607108    2.11749179103382    2.60492933505822
C         5.89086313893303    1.35264001031774   -2.55803045771735
H         5.75258954103045    2.12556889769362   -3.30724583268723
H         6.23110594584829    0.46155374857808   -3.07520720825384
H         6.69175201864527    1.67311736408093   -1.89805498791340
C         6.60999653307542    1.96330443347687    3.24338235268162
C         4.58441806722715   -0.31612233937593   -0.29190792492515
C         3.07870344532423    3.78627516493089   -2.33171117099711
H         3.83852693015144    3.41548829137156   -3.01107630529234
H         2.91192861163225    4.84108196198874   -2.53932878483922
H         2.15761000577334    3.24010491578016   -2.51525599774283
C         5.20429090425856    1.38274350138884    5.24598657877304
H         4.42339084128443    1.09715200091256    4.53018110346888
H         4.91897486472727    2.33454093023742    5.69802437466179
H         5.25466812696364    0.64146361928720    6.04001386030491
C         4.59430973765667    3.14110118097506    2.53101653944245
C         2.47371000039904    4.29740452793900    0.01592722680728
H         2.74033451630438    4.18001308784901    1.06712254181592
H         1.48230287635937    3.88707513698158   -0.16559161879365
H         2.44856996792896    5.35941522059425   -0.22263662888742
C         6.53804171188229    1.51630963363499    4.57038438923402
C         5.67255941352182   -0.28821078985417    0.62394459072279
H         6.69813831950370   -0.04265416775994    0.36762099482017
C         9.00451790163319    1.81684677245705    3.30588702495596
H         9.96237126511432    1.93632163951769    2.82048212735867
C         4.87690635330986    4.28293127523752   -0.66117417262385
H         5.61651072483314    3.85077698978538   -1.32910012201635
H         5.20305216237966    4.13485489317156    0.36991392649220
H         4.80454521245467    5.34973180053921   -0.86364213354070
C         7.89684005799108    2.63484476442621    1.19637307380591
H         8.79988106240061    2.29414645507744    0.69463403139414
H         7.90264895972059    3.72649800127151    1.19704181690703
H         7.01718217654832    2.30403342431425    0.63587148632577
C         4.95662456160663    4.34928776529605    3.37882253160374
H         4.79662602222399    5.26843856824936    2.81484255484117
H         5.99206797191620    4.31374209265344    3.73312228939116
H         4.28972662794265    4.37955893013161    4.24218077901468
C         1.15246321629350    1.39563893980992    2.83778140997702
C         3.22669030859631   -1.57497185378484    4.82692642908611
H         2.76639828891917   -0.99845424386185    5.62253886744943
H         4.30102994942574   -1.46036732422844    4.91213920149118
H         2.99506711302588   -2.61948709492828    5.00193819236912
C         8.94328583045658    1.36679504326532    4.61305270846351
H         9.85201462800029    1.13094139525058    5.14601475820974
C         1.15862198629994   -2.25349522107452    2.70287506751595
H         0.46884057664817   -2.33610548199070    3.53614433450799
H         1.55793529690825   -3.24520210049875    2.51559240577637
H         0.58997471833815   -1.96478968488554    1.82394887319009
C         7.71683706891051    1.22035846852191    5.23748329097686
H         7.67096856089097    0.87278733332716    6.25956771976560
C         0.01474036683039    0.75693585195384    3.65027750707095
H        -0.28132085304452   -0.19299867571609    3.22252041509579
H        -0.85046633447675    1.41632678715403    3.66849909387078
H         0.34776133279498    0.58557358696050    4.67018862624055
C         0.74004515194909    1.45797980770615    1.34321429357539
H         0.39621376416177    0.47172544688070    1.02727479070578
H         1.62766573186861    1.73485120770846    0.73730830323812
H        -0.06774673778898    2.17196562212793    1.18220805941008
C         3.01314797341947    0.35169382087801   -2.91940611135512
H         2.98080238385156    1.00128451359004   -3.78734112863777
H         2.00536586714263    0.28771542137866   -2.51919332699813
H         3.29409153557004   -0.63800042492788   -3.26324970987411
C         1.35006742245002    2.82449330401596    3.38543989338974
H         1.55715755184205    2.76937901431658    4.45289138959940
H         0.45515295739821    3.42558406117701    3.23538578731448
H         2.20073109043771    3.29743046282661    2.89065506273787

