47
CSD_code = USUROQ | q = 0 | S = 0 | Stoichiometry = C19H21FeNO5 | MND = 7
C         3.64724179199309    6.04926425239953   15.81806140350453
H         3.67043041041414    5.25081081981355   16.55515174385724
H         3.55191480896029    7.00270909295250   16.33116344360184
H         4.59718424658739    6.04149595108388   15.28099312018746
C         2.50101461069259    5.85935838697308   14.85229720209806
C         2.30461413616305    4.52890946372602   14.33630212769444
C         1.12421079421425    4.32055893982317   13.57466874790551
C         0.29964790967275    5.48917216976908   13.33973800560003
C         0.14020701799449    3.12657598073125   11.76445391167616
C        -1.24002902541216    3.06429435787708   11.61744671363767
H        -1.86536883675563    2.94444808574267   12.48969142340895
C        -1.80158365527717    3.18491957925595   10.35823097179231
H        -2.87378895567168    3.13032294967944   10.24418941318368
C        -0.99376898400953    3.39010229869781    9.25232713781394
H        -1.43557960791653    3.48354680793599    8.27203757132089
C         0.37896284424137    3.49435776012881    9.40694727843663
H         1.00802758390219    3.67498127316024    8.54859269921663
C         0.94830934017145    3.37098010387361   10.66127033236749
H         2.01640370112582    3.45559982457466   10.79427006878668
C         0.74273422989118    1.95804065091522   13.87166062438505
C         0.46624712107462    0.54865641916345   13.34011072889807
C         1.23587414978029   -0.41100444659794   14.26169084767668
H         0.94442232300593   -0.25720953032213   15.29692751517169
H         2.30766389890398   -0.24154000408402   14.17954224988294
H         1.02474719869958   -1.44119218180502   13.98647991477318
C         0.94174741787093    0.31596924409893   11.90401675593725
H         0.27653777612882    0.76043320732142   11.16985365003012
H         0.97333770506265   -0.75530878553266   11.71480518864987
H         1.94405735150574    0.71322702115744   11.75689011637293
C        -1.03293900136463    0.24738638390776   13.47099359232832
H        -1.39413790293234    0.54428587746936   14.45338847216968
H        -1.20078922203587   -0.82089319971746   13.35217593734662
H        -1.60865277549808    0.76597220176464   12.70967323270461
C        -1.05409597840172    4.43883057465904   15.54580876161501
C         0.88633561911116    4.67361704496618   17.01370884920433
C         0.04021606266518    6.97007421879007   15.78131976736565
N         0.73543821127328    3.04667795758293   13.05659523111759
O         3.16189188187034    3.54967033577148   14.68934154777022
H         2.64641171036686    2.76279156787994   14.96300434610441
O         1.03324432319533    2.11408163677223   15.05681013445226
O        -2.05075284883337    3.87745867032172   15.62484668374143
O         1.08960560750363    4.28670742962661   18.07052620633572
O        -0.26457379657309    8.04317098767279   16.03244735214481
Fe        0.48255368262258    5.28111473444385   15.40461428745757
H         2.46085325623873    6.66685922044557   14.12307507721252
H        -0.63038413201133    5.29004261050242   12.81462117025818
H         0.79195599979193    6.35357205463056   12.90163844280458

