33
CSD_code = USURAC | q = 0 | S = 0 | Stoichiometry = C15H11FeNO5 | MND = 7
C         3.44560569338938    7.09247538287961    2.18140399865196
C         1.31691797916073    6.84279763185977    2.87792357845683
C         2.06387490133467    7.53972318321269    3.85413188054829
C        -0.04625191079441    6.50823252650172    3.14074490381737
H        -0.53033118601854    5.85874978423939    2.42133863711335
H        -0.68088606451847    7.34747823374497    3.40885634092798
C         1.49698578304242    7.93424651645640    5.09991836687452
H         0.59358005673517    8.53242772787111    5.03874084087164
H         2.20077781824678    8.33256706306548    5.82089032751664
C         1.95222494995910    5.84292497719543    0.66260549512354
C         2.39907594823968    6.33143727388737   -0.55780690338751
H         2.94435606969191    7.26081876360508   -0.59624353812349
C         2.15156297988643    5.61252479367112   -1.71143843421794
H         2.50270785159558    5.99485745756831   -2.65843776004950
C         1.45499171481485    4.40999506972344   -1.67390211867764
C         1.02289991092464    3.93237641275457   -0.44283267186805
H         0.49132595100780    2.99351770214990   -0.39017753969522
C         1.27150883668632    4.63452219126961    0.72163644456617
H         0.95287865903275    4.23736749363013    1.67293466359143
C         1.20393541688091    3.63215358634537   -2.92822248390046
H         1.09954247440302    4.29653635083586   -3.78255784945880
H         0.30577202238439    3.02622041184269   -2.83747985875601
H         2.04333906300937    2.96409877671131   -3.12276900239299
C         1.09925181922259    4.13184890595293    4.37528738127176
C        -0.31827382729025    5.81063612698697    5.99320031025474
C         2.39823771186394    5.40975726749541    5.98358588729766
N         2.20226347236203    6.57707855505761    1.84604444629782
O         3.35109920914409    7.67266434599834    3.41356254204498
O         4.44894034632794    7.04867737854852    1.53345902284583
O         1.09051652833265    3.00974826310812    4.14455582873646
O        -1.18868011127574    5.74902599536658    6.72859638594544
O         3.20882342673911    5.11939376683561    6.73478078980211
Fe        1.08922650547950    5.82572008362840    4.87297008797035

