73
CSD_code = USUTEI | q = 0 | S = 0 | Stoichiometry = C36H30Cl2N2P2Pt | MND = 4
C         6.15918770054356   -0.42464913914175    2.36402867661838
C         7.02663272457722   -0.06457562738932    1.33499318619083
H         7.79537330362074    0.67385519901313    1.52689951929365
C         6.88390901191107   -0.63370886870244    0.08572098543777
H         7.55502766169716   -0.35871698081364   -0.71373174927675
C         5.86311707383077   -1.54397419014592   -0.14392101736407
H         5.74379473614819   -1.98175497562781   -1.12380809648867
C         4.98072868750382   -1.87729079647360    0.87079481194887
H         4.17495319520543   -2.57078938858653    0.67996157460904
C         5.12002010827879   -1.31588966562206    2.12822822416746
H         4.42607247263902   -1.56206569786449    2.91980749307307
C         5.05138238183567   -0.00651216900552    5.06450586091083
C         4.19113887453030    1.00477336598280    5.47949450708067
H         4.30780577156050    2.00180206946317    5.05878379617197
C         3.21022214321359    0.73547650240010    6.41632345350041
H         2.54459204379338    1.51991256397836    6.74310523787294
C         3.09155370463251   -0.54197899932223    6.94077341578039
H         2.33018370634440   -0.75303005839162    7.67712054025984
C         3.94698971228135   -1.55216379707876    6.52747793022659
H         3.85064893005225   -2.54532199138286    6.94187546389428
C         4.92841713987408   -1.28880460882998    5.58961472150800
H         5.60612586969842   -2.06705379076360    5.26721921180516
C         8.79868117781154   -0.81632462136118    3.97591702312562
C         8.59214247722906   -1.95107634852548    3.19566886076763
H         7.61175500734845   -2.40146944733737    3.15970952721343
C         9.63762450381484   -2.49943462095675    2.47866820450037
H         9.46339366074549   -3.37334654164058    1.86922491589660
C        10.90338741583770   -1.94137632327907    2.55074159907350
H        11.71930789079123   -2.37247308951116    1.99125248879414
C        11.11856475228063   -0.83782091521947    3.35732664098502
H        12.10432050655950   -0.40402490665388    3.43351072077833
C        10.07524626634082   -0.27643249862391    4.07053736322946
H        10.25808057800812    0.57886278108582    4.70490228676350
C         8.56020757783732   -0.36469362186926    6.92663867130246
C         8.42120286632956   -1.75204629863408    6.92305734054577
H         7.92835157876916   -2.24543275385738    6.10143201590299
C         8.91236245783133   -2.50303811790822    7.97401839341466
H         8.79358658720962   -3.57630003365432    7.95461223587936
C         9.54776326069097   -1.89495531254151    9.04238936092832
H         9.92862242703806   -2.48667192903583    9.86023829403346
C         9.69424369275921   -0.51833676951382    9.04607676459968
H        10.19370284395170   -0.02713071924272    9.86779509091340
C         9.21109573268612    0.23959545176326    7.99797073867151
H         9.34037844370226    1.30881374890397    8.00280731931992
C         9.43362423277925    2.98174901241803    6.03191853285546
C        10.06287961507595    3.15749501602680    4.80081120992351
H         9.57703870202664    2.78440952601409    3.90177893676737
C        11.26130431593942    3.83847395304457    4.71914373632119
H        11.74075520738122    3.97584017744298    3.76166392964852
C        11.83109872130685    4.36620875621099    5.86726411305920
H        12.76294894532321    4.90839596639612    5.80712908531860
C        11.19322836826294    4.22304068703732    7.08832114685076
H        11.62515261633270    4.65721327847668    7.97795951409568
C         9.99504209325480    3.53627462570301    7.17621425800218
H         9.49167500276943    3.45558823782960    8.13059449285829
C         6.93450698395649    2.43372108552453    7.46991552603667
C         6.80798663415817    3.76923042897851    7.85067713210314
H         7.29820513821643    4.53415226754525    7.26346616259576
C         6.03092878578019    4.10324531614920    8.94346866200860
H         5.93457709667920    5.13757257902960    9.23790796855072
C         5.36652201286315    3.11322072774844    9.65094475569708
H         4.75898510746020    3.37538720249338   10.50450442022806
C         5.46588036137458    1.78965777363685    9.25344067603507
H         4.93305132166303    1.02004787857004    9.79223222585452
C         6.23929485837798    1.44517727275926    8.16021258944964
H         6.30089403988580    0.41241088606590    7.84951399969902
Cl        5.64617349191183    3.13930628245390    2.08327711997662
Cl        7.11040169592884    4.88834463812536    4.50051952483051
N         7.70178326055553   -0.30350350815273    4.71258352900552
N         8.04378672902749    0.41920398352601    5.88709443973269
P         6.37755164084385    0.45567288107427    3.92062132795264
P         7.82945381128196    2.12108772109695    5.93203381262652
Pt        6.72807055024238    2.67024927870835    4.04202356803781

