73
CSD_code = USUTAE | q = 0 | S = 0 | Stoichiometry = C36H30Cl2N2P2Pd | MND = 4
C         1.63132432522270   -0.44945568572850    2.33754188825535
C         2.48471714563741   -0.02077870935193    1.32348548438632
H         3.18966747619614    0.77853173939288    1.53019762800941
C         2.40471790252588   -0.59539224602172    0.07080714007552
H         3.06402424920743   -0.26768748507430   -0.71852282040375
C         1.46023107735556   -1.58074312432223   -0.17458481165838
H         1.38992019511394   -2.02491961943238   -1.15638449820585
C         0.59043054692306   -1.98354197101130    0.82599874259138
H        -0.15644559131492   -2.73654127221623    0.62129328409166
C         0.66626683961534   -1.41628765924959    2.08606857546550
H        -0.01881306690272   -1.71593439740616    2.86673853960236
C         0.39992226951242    0.02461583692391    4.99068371021472
C        -0.45784334772731    1.06651011959611    5.34231669466125
H        -0.31917654259421    2.06177284837191    4.89535781307344
C        -1.47921128490235    0.83953828681947    6.24736897685538
H        -2.14307886681554    1.64414326266683    6.52519053965813
C        -1.64187003689067   -0.41951488229108    6.80451608049426
H        -2.43441550551715   -0.59364480610156    7.51705150573822
C        -0.79046397721203   -1.45634711476124    6.45540035132811
H        -0.92055572911011   -2.43456285951641    6.89490029926308
C         0.23143450746499   -1.23825434805502    5.54918608575317
H         0.90976537878513   -2.03633490800936    5.28097385271698
C         4.19134352429436   -0.80622617241481    4.02665528130404
C         4.03622604812120   -1.94953906427517    3.24738064502920
H         3.07574712186991   -2.44057828183802    3.20897191982445
C         5.10629753347075   -2.45193092220333    2.53317931146110
H         4.97212376521020   -3.33298430059028    1.92392544950677
C         6.34563994606173   -1.83759554003736    2.60722918386602
H         7.18088658290461   -2.23242108413628    2.04956293691079
C         6.51003668950310   -0.72385470605713    3.41170303929916
H         7.47499784725684   -0.24557491612588    3.48779475579566
C         5.44109142816731   -0.20791075003730    4.12164878358414
H         5.58344176097145    0.65769362219932    4.75315326727001
C         3.88182959962807   -0.40040388781131    6.97873105622107
C         3.73856933300739   -1.78713403518770    6.97549139080850
H         3.24345056668703   -2.27766297887543    6.15328601270105
C         4.22927627703361   -2.53884473051211    8.02594679605852
H         4.10870620404496   -3.61180512375536    8.00705168730481
C         4.86636176825883   -1.93128707957233    9.09377727961126
H         5.24640736830228   -2.52361477361703    9.91159781005736
C         5.01702896134408   -0.55515649464800    9.09682515494264
H         5.51910074229876   -0.06543524070227    9.91777667380805
C         4.53674346599314    0.20287925878455    8.04747580478652
H         4.67024301974353    1.27179882894974    8.04674251786600
C         4.72475966403889    2.96267348388342    5.92434494902240
C         5.18220241245821    3.20324539439521    4.62545766326422
H         4.57668326970092    2.87749062599517    3.76529610152558
C         6.36615973618530    3.88262814606672    4.41607915563344
H         6.71059799388413    4.06961916976170    3.41008052213474
C         7.09826481924925    4.34211588991995    5.50047978322460
H         8.01953852352780    4.88163645481332    5.33961459005867
C         6.63629239900768    4.13112828456569    6.78820441494391
H         7.19392101366113    4.51047682274490    7.63177775425210
C         5.45304037865259    3.44552008108526    7.00520767124309
H         5.09138668638434    3.31631862514345    8.01624901540147
C         2.33436400525932    2.38924857357793    7.58108300936392
C         2.34831048405361    3.69132747785040    8.07775550768780
H         2.88353942539021    4.46044349471297    7.53873542897319
C         1.64203437752339    3.99468088792607    9.22692505992097
H         1.65427811862568    5.00323318806991    9.61224442567791
C         0.91027964297234    3.01185517441364    9.87426118229634
H         0.35909652805119    3.25210470527100   10.77134656864010
C         0.86986260019720    1.72465777947140    9.36194366809473
H         0.28364560690491    0.96284102054070    9.85442578190603
C         1.57133449323185    1.41019154681955    8.21349934159407
H         1.52537643239118    0.40827460523308    7.81041357480795
N         3.06298279477506   -0.33703894056331    4.75071253938544
N         3.36650823909056    0.38364838834705    5.93943379037979
P         1.78789989799174    0.44084794263256    3.89758046449203
P         3.11933155392783    2.08502083588651    5.98577613290525
Cl        1.07121190422091    3.13445531886172    2.14483943858282
Cl        2.19759715519251    4.76936124998151    4.86128867523174
Pd        2.04040232469577    2.61881113986384    4.12655196932972

