42
CSD_code = USUXUD | q = 0 | S = 0 | Stoichiometry = C17H19ClIrN3O | MND = 8
Ir        6.87652042347686    3.59949661194828   -0.68312697734908
Cl        5.20363125537701    4.03752677308255    0.91295028493864
C         6.63657320225072    0.94649370214746    0.41180090834098
N         6.16008991158792    1.66690871157968   -0.63180478087621
C         7.44100373003636    5.67816899479636   -1.18715050740718
C         6.56051138212534    4.35526184964082   -2.86339788610442
N         7.93886460568180    2.85650532777802    0.73381356210889
C         4.99933617781811    6.21028764454420   -1.92035918858921
H         4.26550001840285    5.85904326766661   -2.64073358987211
H         5.22496365957883    7.25600476996223   -2.13003687941059
H         4.56146898031529    6.15259707221728   -0.92416790171198
C         8.36157837151804    0.99301617006956    2.20012825511176
C         8.70293498674051    2.99913643856891   -3.47900562929181
H         9.59144159555212    2.63923890408098   -2.96594624000006
H         9.01470036355381    3.49383072937956   -4.40071220704294
H         8.09303245363278    2.13919797386883   -3.74870944325775
O         8.82315677747784    3.57265869260812    1.21957515189692
N         8.91504033716053    0.45721114785630    3.05121339388447
C         7.67258843559977    1.61403115737587    1.14414022785844
C         5.17113536243845    1.15852133113425   -1.36487834009214
H         4.80294991573284    1.77640462036679   -2.17071351110287
C         8.50328506160570    4.87732832802436   -1.68587552959416
C         5.12404764783403   -0.84358724811881   -0.06318357306182
H         4.71440943350675   -1.81850748109517    0.15005323024822
C         7.93916519178392    3.95825083115238   -2.62212853130135
C         6.13392282159492   -0.32354193657883    0.71406519994438
H         6.54049355914417   -0.85967290824782    1.55681186398549
C         4.62999686088563   -0.08639138757946   -1.12410897064745
H         3.83463379711905   -0.45821551047297   -1.74880553595479
C         9.92869937143501    4.99458288938139   -1.26682901805048
H        10.03395167476324    4.73900905429057   -0.21038311326417
H        10.26697264077001    6.02154711451852   -1.39714818884223
H        10.56778878828995    4.33681158004359   -1.84912087158502
C         6.25304594725547    5.40248735138731   -1.98650026340676
C         5.70112884460423    3.82335765590566   -3.96669033295323
H         4.64497739994606    3.89569732731351   -3.71484983419585
H         5.93866273881806    2.78428966273098   -4.18615964624711
H         5.87190830155070    4.40253138558778   -4.87604615062538
C         7.59244115296847    6.82748652199120   -0.24575623703157
H         7.88790483545343    7.72450556051484   -0.79343209909570
H         8.35521165935417    6.60772054492213    0.49742397448557
H         6.65553032527123    7.02816877363823    0.26748492517610

