42
CSD_code = USUXOX | q = 0 | S = 0 | Stoichiometry = C17H19ClN3ORh | MND = 8
Rh        4.11639770114170   17.41111376456757    4.44908091825493
Cl        5.77649379492861   17.79633396082938    2.88120399945788
N         3.07176092282155   16.70562806479094    3.01472935343380
O         2.23432571873085   17.45286296869813    2.49601166066266
N         2.08063238307363   14.32968904940126    0.68984703467815
N         4.79553912893654   15.47196484490628    4.42221081109277
C         6.30378311003149   13.70187577518462    4.91287061213140
H         7.09397931342964   13.31838305054365    5.53734141661742
C         5.77788805681576   14.95350596420998    5.15650680546778
H         6.15347895652886   15.56587471852866    5.96556603132263
C         3.57065561161637   19.46343361383036    4.90816926485518
C         3.31143451589137   15.45786998809786    2.62249915416926
C         2.50236616523879   18.67356479768185    5.42183737034548
C         4.75868569793267   19.18866887973562    5.70822354638703
C         5.80143277212603   12.95320456774137    3.85026884212693
H         6.19772586174985   11.97272255379969    3.63662556615149
C         4.31929897684542   14.76710061349778    3.37336386454698
C         2.63117069719723   14.85214214017497    1.55082590412844
C         2.29672503633272   16.80813596741961    7.22865290845843
H         2.90220680497442   15.94648528566768    7.50324775671054
H         1.40318973744752   16.45016274914033    6.72259200571398
H         1.99309501801141   17.31494605530969    8.14671668475274
C         4.44834914514091   18.14637720452721    6.59149849523798
C         4.80304554114157   13.48972001406386    3.06951824111723
H         4.39380191444152   12.96221412068124    2.22246368194237
C         3.06306681484452   17.75930501071850    6.36227128988360
C         5.30477806164402   17.63081260699187    7.70675720743072
H         5.14438964252746   18.24322234010176    8.59629146621064
H         6.36145821756514   17.67926988735643    7.45093926694527
H         5.05051560291356   16.60370839562986    7.96074856247125
C         1.07567529427780   18.80152616130789    5.00584016106556
H         0.96732987360338   18.57160013414653    3.94367286272206
H         0.74353664684093   19.82772293872799    5.15946700920179
H         0.43497213375172   18.13414567771426    5.57578293910680
C         6.01699475131263   19.99086657865245    5.63922002125096
H         6.43356917325801   19.96530208443035    4.63289753241762
H         6.76417946060495   19.61219992089165    6.33144306479574
H         5.79865182832340   21.02932362697166    5.89020890289199
C         3.41622611304844   20.60328621309313    3.95281267315771
H         3.06436477385232   21.48846253509328    4.48640059227290
H         2.69162252566494   20.35263352785731    3.18070140239620
H         4.36480650338489   20.83773164742713    3.47657311597027

