51
CSD_code = USUYAK | q = 1 | S = 0 | Stoichiometry = C22H24ClN2ORu(1+) | MND = 9
C        -0.39443425056387    9.26550856577491    6.18905051779763
C        -1.13415423324422    8.18105340054950    6.73023720893506
H        -2.21713492748882    8.19649783015076    6.67262930653197
C        -0.48968811102789    7.08323150977211    7.30389197298833
H        -1.07387649446066    6.25318902690729    7.68609364515845
C         0.93343615130807    6.96892559162592    7.27604928719373
C         1.66729608915859    8.02653315706169    6.72568681188827
H         2.74320642099238    7.93359167559641    6.62129777303794
C         1.01446290810854    9.18187519945574    6.22467896227820
H         1.60908448905350    9.95442613304260    5.74954560514387
C        -1.09742751209722   10.43519420870785    5.54428877877573
H        -2.16801453638291   10.34761179053016    5.75852867327039
C        -0.90317830688860   10.38643810886401    4.02542256344880
H         0.14717076784394   10.48746480863082    3.76332214890562
H        -1.45238543497030   11.19906163299190    3.55859449529967
H        -1.27150943558136    9.44643265272696    3.62167823459455
C        -0.60106406649269   11.76440557857508    6.12036926280326
H        -0.63672516703137   11.74529702659272    7.21245290495843
H        -1.23063932258500   12.57686222619084    5.76843236978119
H         0.41966715187395   11.97399633562029    5.81034813586275
C         1.59151386766784    5.73316921061312    7.79310877357943
H         2.65902068191644    5.73522774905803    7.58796818438067
H         1.14113327125513    4.85014554689430    7.34183153863435
H         1.44678196429022    5.66108640891140    8.87271156413542
C         2.69324450309604   10.52717617912510    9.13792450410054
H         3.18150943601238    9.88419936812380    8.41671116156733
C         3.42243517713598   11.42314905235999    9.89410232682171
H         4.48972510750296   11.49224271860848    9.76379137874143
C         2.75959730714058   12.22603257735886   10.81862125292070
H         3.30500978243836   12.93718466875955   11.41771562353102
C         1.39398522346822   12.08933193367040   10.96095738235615
H         0.83975938773212   12.68626942161027   11.66701559373658
C         0.71934862965185   11.15083080639208   10.17746576707781
C        -0.70343670371469   10.88704287970920   10.21460128026569
C        -1.63841316766490   11.50924636912217   11.16416305586557
C        -1.36550804173543   11.46482152280933   12.53235669134527
H        -0.47781944015044   10.95972205878544   12.88099126592558
C        -2.25169456082173   12.02863400796646   13.43062868517149
H        -2.03954294103901   11.98481748416645   14.48734770228377
C        -3.40817934705092   12.64607319309659   12.97894554953415
H        -4.09320072815904   13.08972367497080   13.68399948869939
C        -3.68449035423690   12.69281099013422   11.62250492772135
H        -4.58165593996940   13.17510707795232   11.26742751582868
C        -2.81007225380182   12.12212076767215   10.71469341130822
H        -3.01576747162844   12.18651032883524    9.65545236901058
N        -1.04617219322752   10.00601980921887    9.31516629083710
N         1.37324720877576   10.39602443474120    9.25569024800056
O        -2.33161288536567    9.59071836991181    9.18338566466546
H        -2.84659313171040    9.80887140680944    9.98868016321572
Ru        0.27637395604037    9.00396248152843    8.36938455647889
Cl        0.58258147663835    7.88723104171992   10.38885742360067

