69
CSD_code = UTADAV | q = 1 | S = 0 | Stoichiometry = C36H27IrN5(1+) | MND = 6
Ir        4.30322656218924    4.41179900246763   10.39453744708501
N         6.19009987000036    4.15028383614569    9.24601186489291
N         4.12416913946568    2.41845837273634    9.48087427214173
N         3.18571178060963    1.49564737252129    9.32048571517033
N         3.59519162099317    5.38533001808138    8.75078659574972
N         4.94466618599348    3.60458872202084   12.13260117661899
C         7.20761548792687    4.99959464973531    9.19720961229909
H         7.12720878401427    5.87117944321696    9.83222911716983
C         8.31483170626842    4.80127620323971    8.39056193088879
H         9.11715801547841    5.52043736907206    8.38497155552162
C         8.36382944786615    3.66291370934202    7.59752335596774
H         9.21047973230158    3.47388357044020    6.95603200023169
C         7.30784695073923    2.77185156043401    7.64488761786941
H         7.31212645502944    1.87473984322399    7.04782146531354
C         6.22906267980710    3.04604438576133    8.48425512903600
C         5.08102279515246    2.16436537322557    8.58222868408053
C         4.72982952464531    1.02839189213057    7.83119680200303
H         5.27849009660242    0.56628875705386    7.03799715134143
C         3.51005635901484    0.63894502613965    8.33118595401161
H         2.87260649095744   -0.17958773988003    8.06552912727775
C         2.02175470323680    1.46101074572799   10.12237999472192
C         0.77335769610857    1.54849042125107    9.52234253411832
H         0.69385976430078    1.64656300654136    8.44983189066434
C        -0.36085518632047    1.51482561206888   10.31291684460058
H        -1.33421933116722    1.58617468278758    9.85360260756234
C        -0.24700163905495    1.38819789651003   11.68738504300343
H        -1.13461365855748    1.35918930938014   12.29924288149567
C         1.00167081402900    1.29068300921770   12.27732958050323
H         1.08867992718694    1.17811277237024   13.34616562568315
C         2.14310241438455    1.32982119030475   11.49800970944416
H         3.12218751442981    1.24281177321473   11.94347137249465
C         2.99505938535935    4.81826417507750    7.70479445552511
H         2.82852975285257    3.75149784046011    7.75437877330617
C         2.57861704368322    5.52192567954518    6.59306459949318
H         2.09796082246196    5.00970612112848    5.77576974806889
C         2.79163129012430    6.89416860200783    6.55974008435449
H         2.48238731491759    7.47877271106042    5.70760463068451
C         3.39744127233989    7.49409365161730    7.64407144956701
H         3.56234040846270    8.55843551154785    7.65009143926013
C         3.79114055584153    6.72531580030308    8.74097801268111
C         4.40584689813119    7.25668323769079    9.94758996302812
C         4.66455940663915    6.31266534546623   10.96294759655107
C         5.22778037515745    6.77051006104955   12.14710625749822
H         5.43205163977814    6.08524724330773   12.95775708488768
C         5.53496854181013    8.11076973135456   12.32488835195828
H         5.97090170500508    8.44106544503849   13.25593676272608
C         5.28583879220048    9.02729581619146   11.31547518999245
H         5.52945442452241   10.06888559121884   11.45686964155441
C         4.72026355595333    8.60440818155848   10.13039737480609
H         4.52837700533732    9.32467465797006    9.35025280124533
C         6.17185631835496    3.12859254486441   12.34356175476018
H         6.85257697300096    3.14582730135129   11.50323840703163
C         6.59339226894352    2.63416862450113   13.56171176390129
H         7.59814149860627    2.26217326330720   13.67680657798313
C         5.69868207632588    2.63544852867559   14.62471310044286
H         5.99484191188290    2.26429010330091   15.59325244032927
C         4.42413079985567    3.12173413734671   14.41559315723524
H         3.71049134803685    3.13559944092177   15.22233376887964
C         4.05709122691483    3.60545262972174   13.15898241009322
C         2.73944466670160    4.11245687940434   12.81057751229767
C         2.60064060041147    4.54425487878451   11.47401957045700
C         1.34692602827719    4.97562715631157   11.06030890950062
H         1.19423029929383    5.31450301057465   10.04494860037837
C         0.26909668160327    4.98843722799313   11.93100868769729
H        -0.69597126528556    5.32615343675605   11.58365378570369
C         0.42531475978130    4.58484432875108   13.24765489828972
H        -0.41357968523277    4.61377833904256   13.92572346050227
C         1.65638634407085    4.14674012117846   13.68889051718463
H         1.76990425424743    3.83162085713538   14.71480180118099

