79
CSD_code = UTAHIH | q = 1 | S = 0 | Stoichiometry = C28H38BN9OPW(1+) | MND = 7
W         2.49103314951206   10.60567587438075    2.98036795820192
P         4.23599550572186   12.34286279897041    3.53256323201560
O         3.18437933829369   10.41271346927294    0.12054401428845
N         8.82384744612671    9.68695559224265    3.49745198759435
N         1.69495914564422    6.71650367267845    2.64149274415841
N         0.51626068551622    9.81839425486732    2.57724919457371
N        -0.53910255981091   10.26916631583100    3.26901502436260
N         1.83989540052008   10.77667277571151    5.04488883164830
N         0.59161049242045   11.18152436615738    5.30776600784468
N         1.32256390252871   12.38127753773384    2.62593529064064
N         0.18105885238038   12.58760857957127    3.29319016548494
N         2.92329357143918   10.50316319247948    1.27679997347295
C         5.31159686044936    9.01365835543582    2.57011231150131
H         5.25782217681711    9.71333946274019    1.72655276752770
C         5.13945148005821    7.59978262837807    2.00424605868151
H         5.86600160219463    7.43535004654879    1.20873100552880
H         5.32916825638630    6.86725943634537    2.79088310671662
C         3.72594067667624    7.40602003034842    1.45320297628480
H         3.54529534587616    8.14051387920293    0.66378636038475
H         3.66041187902099    6.41324202851568    1.01020765505782
C         2.74363595187329    7.54597056942315    2.57852438724838
C         3.03321509137913    8.45910116414914    3.60731054047080
C         4.19985888197144    9.32094193813911    3.58126460276459
C         6.67141371860394    9.13779551237714    3.18739127104315
C         7.74053289814448    9.81779749750662    2.67550446528886
H         7.80818211227028   10.38883015117011    1.76897944861238
C         8.48363400009332    8.89799434409204    4.55765329193881
C         9.24223848012214    8.47686988097447    5.64322168888658
H        10.27605059158521    8.76941122667168    5.74568044386238
C         8.62962340417817    7.66889097181142    6.57476898952795
H         9.18846129594653    7.31933992885826    7.42908189144104
C         7.29347796565925    7.28337885477360    6.43109308120591
H         6.85297631172407    6.64126278807436    7.17927394019866
C         6.53686391174646    7.69874674609060    5.35978131672121
H         5.50948397860682    7.37998005821533    5.26053649811103
C         7.12641546383900    8.52550815641957    4.39993018973981
C        -1.66661692307229    9.74221852099735    2.76803877296798
H        -2.62379081930851    9.98078967061074    3.18371803565474
C        -1.33054794200860    8.92348093846392    1.70980956806813
H        -1.98986423588007    8.35668739663261    1.08681147151645
C         0.05631023910636    9.01846950646457    1.62120486171618
H         0.71821859650946    8.57497610585285    0.90260313276962
C         0.40309560970872   11.26719360675608    6.63270004093029
H        -0.53586957757830   11.57598110747450    7.04304982081365
C         1.57598826353291   10.90101505255105    7.25904516788001
H         1.77364171873265   10.85614616580268    8.30922163139299
C         2.44789546519698   10.60205684880746    6.21536777418075
H         3.46586936386824   10.26512537152482    6.27901478700386
C        -0.41804612053842   13.69499777029018    2.83428887109382
H        -1.35195490466747   14.03003188147957    3.23641244586636
C         0.36632475935744   14.22974124124797    1.83227815151601
H         0.17928387706771   15.11030093513335    1.25465979214519
C         1.44888843213041   13.35987830925368    1.73447601400168
H         2.28367331685951   13.39191317281302    1.05814182559171
C         3.57210164497607   13.93183002974157    4.17850546995625
H         4.39621939445131   14.58593733584654    4.46110895970949
H         2.95884043776741   13.73738949414389    5.05854522690101
H         2.96295354833431   14.43229851989763    3.42905351249899
C         5.23502040808148   12.90251399275311    2.10602208380549
H         4.59336160633821   13.12647413270135    1.25732016575976
H         5.91012840405301   12.09782267677411    1.82294295339963
H         5.81351172520281   13.78663689256349    2.37160036907694
C         5.57148261646806   12.07780415704336    4.76212727585122
H         6.18036080692673   11.22178268009893    4.47961613348156
H         5.14868558783765   11.91102911765923    5.75045664995017
H         6.19948869189352   12.96769822007389    4.79542582633665
C         0.88548676638693    6.62827542833241    3.83843035259954
H         1.48833655966219    6.30312725578748    4.68953888167809
H         0.09328363979857    5.90053144194457    3.68840898491680
H         0.42816787758413    7.59063401784330    4.08113418281805
C         1.31296617012649    5.84819274634562    1.54794342640745
H         1.57574641018327    6.28442552456593    0.58730218480266
H         0.23391351381746    5.70512294429091    1.56431139741692
H         1.79120718583124    4.86851319992015    1.63613111818060
B        -0.41016554459425   11.49158204256303    4.19976138235779
H        -1.45599100101296   11.80810619551059    4.64156727965088
H         9.73845158819117   10.06539478243701    3.32040283900439
H         2.58661156358468    8.27063528270512    4.58365268803263
H         4.61838401355411    9.47563420016754    4.57686577726321

