71
CSD_code = UTANIO | q = 0 | S = 0 | Stoichiometry = C30H32ClN3O3RuS | MND = 9
Ru        9.47398560104475    3.15924147966237    8.88966806541025
N         7.72355889911678    2.40019523557849    8.50675369762154
C         7.79740806460793    3.94832439573978    6.71926432961718
Cl       10.58681561654905    1.73318153651766    7.48267020473247
S        10.16246039767064    5.17810679866777    6.61873451408304
O         9.78396347543067    6.56515131124879    6.72947647595431
O        11.35046800709783    4.78532196443708    7.32976609939164
N         7.07485703760166    1.57570552936427    9.20492682855983
C         7.21426960674190    4.56324142885955    5.60128237213257
H         7.75163135303660    5.34909794724977    5.09492993684178
O         9.15585903716155   -1.75617516615042   13.09353707561255
N         8.99347563843193    4.21974355191830    7.25666347560191
C         5.96151944459938    4.16782461260675    5.19343564082165
H         5.51183177193517    4.64288184065776    4.33420148635844
C         8.70816167631883    7.20484848096762   11.12606991039113
H         8.34953946452499    6.77134993872652   12.05860733926850
H         8.14575756544198    8.11348641089666   10.92735251878122
H         9.75620538850677    7.46777409775312   11.24876250917816
C         7.04352883720409    5.90013222192368    9.76593390445723
H         6.91552525682081    5.10555152380554    9.03142384279686
H         6.53340524642002    6.78609265310751    9.39621594341686
H         6.56625732557666    5.60186828386835   10.69779298640457
C         5.25694868385388    3.16683470482916    5.86754577597354
H         4.27886420423385    2.87540157985511    5.51823131598969
C         5.80259307026647    2.55654189305932    6.97316834345675
H         5.28057960515697    1.78512607760568    7.51722756961766
C         8.52547800927253    6.21239256842852    9.97122197700064
H         8.90700048725218    6.66956058152046    9.05010647222006
C         7.07272492819565    2.94123843698735    7.41016143902913
C        10.75888516029298    5.03992124233397   10.00477665890151
H        11.18422832868513    5.94018289219208    9.58260748462428
C        11.57056043788384    3.95274330104234   10.26450247153786
H        12.62409444153640    3.99782777862641   10.02259788383818
C        11.05863654244659    2.79435824941236   10.91445258673384
C         9.38262661932103   -0.75930574420981   10.87250954359434
H        10.29543190521336   -1.28734028063531   10.64655711256580
C         8.72315137113769   -0.94919824821417   12.08275161771723
C         7.51409148439089   -0.28371326534087   12.31130365477725
H         7.00643133540165   -0.45545916585179   13.24743385786794
C         6.98418684391236    0.55470253229487   11.35939441506201
H         6.04738333562180    1.06059011771754   11.53380412682542
C         7.66921866561714    0.78741607432029   10.15953602281582
C        10.30341128321382    4.76188604270413    4.88606307741397
C        11.97782638854798    1.65564056190855   11.23945354475815
H        12.89738753846678    2.02472081783274   11.69158215962852
H        12.24259428823317    1.12686412458974   10.32302929546520
H        11.49806116669113    0.95505787860819   11.91876910251690
C         8.87028908464594    0.10820970186859    9.92521160328676
H         9.36795777317577    0.21181460190404    8.96907218088780
C        10.64880494588435    3.83885273728794    0.73608003538224
H        11.20755026412658    2.91808592797589    0.58728361307773
H        11.13636860319089    4.64273310178804    0.19050872727004
H         9.65307194625873    3.69807884951810    0.31484333360452
C         9.36159394223410    4.98264635451432   10.24631969387071
C         9.73173877193233    2.80944443406556   11.34537741387611
H         9.35981552512186    2.02355245383377   11.99214353058998
C         8.86496315900362    3.85558776783063   10.94517609338853
H         7.84657496346872    3.85406040237633   11.32009672387014
C        10.42177719294978    5.78956390497655    3.97046603882288
H        10.41246780469758    6.80705397083398    4.32876601742854
C        10.54184816884969    4.16618368043573    2.19363030971960
C        10.41891047822307    3.15011284799434    3.13627240897352
H        10.41811851411433    2.11969350251993    2.81334853405712
C        10.30083319504876    3.44066707403262    4.48394592827803
H        10.21631624858578    2.65203269914491    5.21588370206365
C        10.54241559389627    5.48855739927412    2.62558142420231
H        10.63921102236333    6.28704133111801    1.90438768638467
C        10.33427200307353   -2.50010138714258   12.90175913423738
H        10.24836979367795   -3.17587614838970   12.04529861506275
H        10.46391871033312   -3.08538076465935   13.81074927777627
H        11.20523145846744   -1.85035127211718   12.76424130650387

