67
CSD_code = UTANUA | q = 0 | S = 0 | Stoichiometry = C29H29BrClN3O2RuS | MND = 9
Ru        0.92935786524160   14.21464240967546    5.60557668098903
Cl       -1.15837490900242   14.10343214915937    4.67585849100334
O         1.25361137634200   14.73507096503221    2.75503620986392
S         1.42200761158692   16.09841465992120    3.18310997601847
Br       -1.29381449656081    9.26415733885704    9.93325140737686
N         0.34237916930218   15.29691418669750    7.10627334494214
C        -2.67502077089011   19.65350006013232    0.50634195492203
H        -2.28621953755866   20.65831776297360    0.35921627939839
H        -3.59417091720226   19.70790837291151    1.08377955922042
H        -2.91537980889350   19.24026158226361   -0.47351079416796
C         0.62951267843730   18.13895885700770    1.54777384304345
H         1.68805439231888   18.25568073504039    1.37524865287713
C        -0.30636958955757   18.95356958360364    0.93720663500427
H         0.01849721065940   19.72959709003499    0.25959971668413
C        -1.66503999805993   18.78328794106440    1.18771745389258
C        -2.06806963820879   17.77874638254605    2.06135825212031
H        -3.11898906842882   17.63582702569880    2.26365979074738
C         0.72737798633831   17.06012394483010    5.58088897400095
N         0.09570331862937   14.90888756472870    8.28318378700099
C        -1.13955963824067   16.95669889795354    2.67595281754357
H        -1.45092278209730   16.17352585584179    3.34984900316626
C         0.20191629519728   17.14850811501565    2.41152440757708
C         0.40120870491196   10.52885165013017    5.31086828761465
H         0.22471019779106   10.06414071006868    6.27781820291297
H         0.77815571071957    9.78006966636659    4.61599510580522
H        -0.55025933222071   10.89561395897748    4.92279431863601
C         0.75371197747171   18.42735567332502    5.26441382396362
H         1.08803801691274   18.73376662417977    4.28638432863352
O         2.72866148211311   16.67333414030042    2.98572523522023
N         1.07251749901770   16.03874898958405    4.78939359674595
C         0.37672155185656   19.34486624955216    6.21640051021412
H         0.39863289831929   20.39661495730718    5.97291428942724
C        -0.03169625493307   18.94753435728129    7.49350942714791
H        -0.32660700217614   19.69315333277357    8.21492936579981
C         0.32432459857778   16.66100608750547    6.88384687585173
C        -0.05481924307464   17.61563059366836    7.83293495966012
H        -0.35894038544526   17.27951310570071    8.81176063530397
C         0.30592869525464   13.08791877278824    9.79731511998888
H         0.96375841214168   13.69601904078632   10.39826015222654
C        -0.01583513584071   11.80666963045217   10.19085476381436
H         0.38611380131126   11.39603071452708   11.10455487828185
C        -0.86712443311898   11.04713834049872    9.40137807190616
C        -1.41671970345995   11.56133348777462    8.23764483593055
H        -2.10679418717378   10.97051309060679    7.65497050466226
C        -1.07973560988392   12.83573087795188    7.82896292603483
H        -1.53753973837604   13.25983883328618    6.94402519588340
C         1.36670675664217   11.66849596781292    5.42847444539412
C         3.18071229441897   13.86164146603854    5.57874044581073
C         2.90010775485343   13.22710960368104    4.34107690449520
H         3.40327971853426   13.56999984704999    3.44726288813739
C         1.79476709479563   12.14326041141348    6.67039068188441
H         1.49742778269972   11.63284767130161    7.57878408416164
C         4.22254538547240   14.95664749943384    5.61839072879098
H         4.11682256718323   15.54417969084852    4.69833177628885
C         5.61583593852817   14.31630590621650    5.63768271549117
H         5.74382790502225   13.71246396930540    6.53492698693667
H         6.37973919375643   15.08934880009428    5.62834172921129
H         5.76042108164224   13.67800375383104    4.76921544130629
C         4.05214131439967   15.90333205652463    6.80637322731249
H         4.31676224511872   15.41824608210344    7.74429654048037
H         3.02430641178398   16.26087513886454    6.86920761784629
H         4.70153475909948   16.76582903409490    6.68004908278078
C         1.97095843896303   12.20780153457728    4.25835497476630
H         1.73300447091762   11.77398255782215    3.29634168598479
C         2.63463178734946   13.28040368078944    6.74900684790953
H         2.97596744431270   13.60543578254688    7.72669106108220
C        -0.19589961554928   13.61036517929187    8.59770827904928

