68
CSD_code = UTAPAI | q = 0 | S = 0 | Stoichiometry = C29H31ClN3O2RhS | MND = 8
Rh        6.95366485028153    5.66519879671247   11.19192323393226
Cl        6.73579490152954    4.43350370164292   13.12443978261361
S        10.04554252340870    5.59028575233748   12.18621418853875
O        11.08705571247972    6.21538259931567   11.40873688485235
O         9.36173366122887    6.42344906368576   13.13306975820490
N         6.76874079704642    4.01901668317028   10.04591457022843
N         5.75105949421240    3.48970306041131    9.52349808407560
N         8.88109354589030    5.00928496553173   11.16044161274530
C         9.12288449888343    4.00597525420213   10.31225581698528
C        10.38564024075810    3.46168719994201   10.01229292949351
H        11.26099580073232    3.89859703882947   10.46284026561424
C        10.48209167576897    2.42490761896728    9.11939331592219
H        11.45446082283020    2.01893169943506    8.88267620483126
C         9.34643533868657    1.88478786211067    8.50249835486366
H         9.45452751049937    1.06689987054442    7.80729815038206
C         8.10378783147298    2.39700595018599    8.77556923554678
H         7.21293001465039    2.00438068672264    8.31089778346458
C         7.97750310714320    3.46306536245923    9.67699099745249
C         4.44347228840556    3.68355773759039    9.85501648948304
C         3.98708068940227    3.83674485276911   11.17030423986628
H         4.69576759349020    3.84921437971736   11.98581733807472
C         2.62867341127221    3.89300849039896   11.41909028459172
H         2.28279791985710    3.99461865536706   12.43728105996383
C         1.71207728264193    3.81583188955328   10.38290830426665
H         0.65334959021283    3.86982032960784   10.58823807934552
C         2.15933458188841    3.64594820841702    9.07904356528250
H         1.44757814312161    3.56927978181951    8.27015860676352
C         3.50836022031304    3.56063789457595    8.81487282147184
H         3.86798835280287    3.42330162283332    7.80642535480842
C        10.73702192306608    4.16587054335320   13.02165141560882
C         9.91541939406937    3.20872838581069   13.58377466016454
H         8.84314994149707    3.30890672881951   13.51740181381354
C        10.48853304785223    2.13211575681810   14.23675476165764
H         9.85305028378971    1.37825136400818   14.67726871148256
C        11.87119301396114    2.00829206960312   14.33648635521197
C        12.67625204090628    2.98931663412443   13.76846653899662
H        13.75113078485062    2.90940773022805   13.84158233596483
C        12.11197711555075    4.06809990904804   13.11064016871653
H        12.71790179658334    4.83822799229059   12.65877313860452
C        12.47199243698060    0.84467546160685   15.06331870578277
H        12.34830422957131    0.97547550396873   16.13822461803439
H        13.53385432971706    0.75527731130407   14.84973866059530
H        11.97449218941939   -0.08121022605597   14.78245712067335
C         6.88060013658582    7.39123073978800    9.85662170203329
C         5.51893955491903    7.01985870534956   10.13596414476189
C         5.32641108907732    7.11862401494143   11.54162999488372
C         6.54196303149315    7.66597537172119   12.12074951173436
C         7.46624318925000    7.88499918374892   11.07772747895075
C         7.47696571730178    7.57740196858915    8.49652863395029
H         7.26429319812310    8.58675103274536    8.13729105461185
H         7.06340948881510    6.86804658691234    7.78245843569699
H         8.55688834184113    7.44924861770403    8.53210121985678
C         4.47571318802891    6.79122626208143    9.08833914185236
H         4.21048810398070    7.75477595476033    8.64820705648723
H         3.57718245580483    6.34560376940666    9.50545262367861
H         4.84146894634497    6.14961039129920    8.28935669787858
C         4.03578402389635    6.99713054007124   12.29065433225739
H         3.70897462813692    7.99028237086884   12.60293242046828
H         4.16161851240895    6.38417565503222   13.18135885896832
H         3.26068821823390    6.55187304385432   11.67306363821587
C         6.70769928663050    8.09475107019949   13.54302930927583
H         5.96500766917653    7.62106330790428   14.17931225764756
H         6.59751401900683    9.17814355868270   13.61782915984602
H         7.69773126468382    7.81408070709657   13.89751716002891
C         8.76518374240337    8.61331455008466   11.15986802032358
H         8.70449156423340    9.51770989040185   10.55122949939268
H         9.59242565639786    8.00766133991255   10.79350734392249
H         8.98592004445572    8.88329919303277   12.18762398434087

