74
CSD_code = UTAPIQ | q = 0 | S = 0 | Stoichiometry = C38H24N4O7Zn | MND = 5
Zn       -1.45775161692089    3.12548166562411    1.91182422767669
O         0.07043111510603    3.59410356881964    6.84403566540490
H         0.44036772144041    3.60062461166646    5.93129561705697
O        -1.91134872735184    1.98847026234436    3.46689775743702
O         2.31673837775784    4.23953612676238    4.92639253789751
O        -1.10093429572221    5.37165275466784    1.14272708652604
H        -0.29983307173480    5.41109816431219    0.60842873427886
N        -0.11490521259603    3.15629109720378    4.25217077261209
N         0.21294285489682    3.36935900266887    2.98956460597457
C        -1.08404206757886    2.93618161348185    6.90412351856722
C        -1.75003956508166    2.36993301270158    5.79814630519976
C        -2.96544692306095    1.70414906923081    5.99574226031901
H        -3.44849693914673    1.27855164293665    5.12895959613341
C        -3.53122205194023    1.59888025118338    7.24338086205212
H        -4.47234969480698    1.08759452065512    7.37414591463190
C        -2.87844416956574    2.16357836106978    8.33445659792674
H        -3.31352463639931    2.08915459800069    9.32025397050657
C        -1.67817621931326    2.81455987281904    8.16716205304547
H        -1.15844365488393    3.25320753613147    9.00470546940506
C        -1.26575708502889    2.49229533200430    4.42506090008868
C         1.38878171828540    3.84872311713654    2.71508628905352
C         2.41711159173089    4.28244401756463    3.72047924960754
C         3.54572452480446    4.80732425139100    2.91466539892606
C         4.76841057349805    5.33925462141993    3.23851387724933
H         5.07384857196941    5.45572593123850    4.26684335739718
C         5.62482435473469    5.72625254750455    2.19093576497560
H         6.58729636086356    6.14649329983269    2.44417094866246
C         5.28729069381846    5.58009339832812    0.86641693421607
H         5.97968871985917    5.88067498564625    0.09338006201711
C         3.54497952675886    4.78015143954818   -0.80019350838611
H         4.14735859157181    5.04080552183301   -1.65780604774376
C         2.31450251871734    4.19227744598815   -0.97015988899402
H         1.96454201758463    3.98883450430469   -1.97209736603217
C         1.48388478801493    3.82765439314602    0.10687342641676
H         0.54881410074372    3.32321332367714   -0.08767548426455
C         1.91740157806804    4.08753720326366    1.38711270632207
C         3.19737697247655    4.66734952387583    1.55776157097992
C         4.03921518250651    5.02791829652849    0.50079763019731
H        -1.82423526712589    5.70422049729970    0.60334747460847
O        -5.64987701052718    2.32631905305417   -1.19036020154284
H        -5.35805872314265    2.56062827418145   -0.27897199977703
O        -1.63547191942984    2.41192175017099    0.13971227296260
O        -6.28051503431294    2.63350311745944    1.90885938047949
N        -3.82265792567602    2.96595166134059    0.56730257986761
N        -3.41412923394261    3.53259591104984    1.69757608203797
C        -4.61273942758480    1.98580766126271   -1.95104991956995
C        -3.26357272244611    2.03716347769526   -1.54137411347330
C        -2.26160966904741    1.63337806997005   -2.43194346305513
H        -1.23965163503749    1.66925855298223   -2.08530106302969
C        -2.56134156118901    1.20567595237964   -3.70326383201996
H        -1.77516410815382    0.90148306468028   -4.37702474728732
C        -3.89104151281841    1.16491711691364   -4.11140726529378
H        -4.13898195029898    0.83039080412759   -5.10786564193997
C        -4.89484675486611    1.54322128573309   -3.25005451033316
H        -5.93068146964584    1.50945367719374   -3.54933049166756
C        -2.85778952236301    2.49087854364242   -0.21208276590028
C        -4.24956198420070    3.73244291774929    2.66613001700107
C        -5.63947271197763    3.16604199916137    2.78552333074224
C        -6.00568560552351    3.37294368558977    4.20738888598560
C        -7.09221098388909    3.01268879038848    4.96447766953931
H        -7.91802039380308    2.46570765434724    4.53600022292794
C        -7.10360842493400    3.37223228222228    6.32511876115343
H        -7.95633943786420    3.08379338375427    6.92282667012366
C        -6.07968478541815    4.07391421778524    6.91625830707689
H        -6.13165146448989    4.33034588043819    7.96440206105046
C        -3.81331633443120    5.18102660302337    6.60248713359749
H        -3.74537158101271    5.49129355804267    7.63430665977863
C        -2.80113851615121    5.48159349994474    5.72320757079114
H        -1.94373715299747    6.03389063711391    6.07850253989390
C        -2.82098976684266    5.08509181232800    4.37310053958130
H        -2.00369715978526    5.35728049752323    3.71974845953004
C        -3.89880431239284    4.36280649469590    3.92183259521144
C        -4.95489558686280    4.08549932200720    4.81861816201402
C        -4.94936487387875    4.46390740634199    6.16442326564255

