73
CSD_code = UTATUG | q = 0 | S = 0 | Stoichiometry = C33H31IrN2O6 | MND = 6
Ir        5.58646903731132   17.57210562622321    6.48565243616752
O         4.68684842257747   18.74641062343609    8.14109466724042
C         4.84923090012175   18.57928084714094    9.37378045525788
C         5.58757965074929   17.57272235709284   10.00330239295748
H         5.58803277377685   17.57296460435317   11.08338528321008
C         4.15062502876207   19.56802734156197   10.29201414453030
H         4.87823935980103   20.06038434121396   10.93342177840493
H         3.43487473456570   19.04742327863332   10.92523620869961
H         3.62993271804420   20.31449822356064    9.69741673827994
N         4.17712692384386   16.17754712340258    6.47342431353854
C         4.42816938198171   15.06800787160071    5.73169148751141
C         3.56376107917706   13.97895587333712    5.77675371662863
H         3.75798906888069   13.08810458705735    5.20163205702398
C         2.42918040440284   14.02234312995751    6.57628445303519
C         2.17903926184925   15.18033407016370    7.31615307750254
H         1.30494951289969   15.25606078502235    7.94077332361511
C         3.07907647176125   16.22103957614372    7.22802678705896
H         2.91713478453774   17.13665261855258    7.78034052078234
C         1.53062797071893   12.84297591360780    6.60548178512329
O         1.71686004071012   11.83207790859749    5.97347640984069
O         0.47797295852362   13.02144241480797    7.41673741105162
C        -0.43094086829579   11.93426132426713    7.49535244544601
H        -0.83763171548724   11.70797767913202    6.50748712416146
H        -1.22149946435664   12.24631590756442    8.17280410096367
H         0.07391351365540   11.04454508064139    7.87753735759974
C         6.34511689935160   16.36786105741454    5.06491245076843
C         5.63186786175621   15.16031807797812    4.92351631863030
C         6.07266364494353   14.15892101143516    4.05760233000057
H         5.51705213664845   13.23717147983805    3.96487886053142
C         7.22391877074699   14.33180686348302    3.31221223792733
C         7.92780405437578   15.52645537603552    3.44492787407419
H         8.82800817396002   15.67329131516798    2.86382632474394
C         7.49790016918228   16.52210397287692    4.30417146043740
H         8.07525324407140   17.43383276257036    4.37418124476471
C         7.70524204309762   13.27227384526299    2.36620934697424
H         7.53780951727925   13.58559290864463    1.33564327529555
H         7.17824667801284   12.33565589200387    2.52901967709732
H         8.77271653147897   13.10112010840076    2.49270144721463
O         6.48670992810437   16.39811056784450    8.14090203000855
C         6.32522206383971   16.56573119271238    9.37364672363899
C         7.02421108925916   15.57716555379431   10.29171889413296
H         6.29648642765605   15.08333212239238   10.93190458962587
H         7.73870942948953   16.09794600903870   10.92623647188522
H         7.54626725660292   14.83175940174437    9.69696701856481
N         6.99558832284495   18.96687168179594    6.47275953244624
C         6.74374779615087   20.07648206865926    5.73139465860320
C         7.60737854369880   21.16613062577338    5.77681977215439
H         7.41246298110422   22.05706336083200    5.20205638801321
C         8.74187135657045   21.12338040262931    6.57651222797235
C         8.99289541332935   19.96528454571166    7.31591338527557
H         9.86696632566305   19.89001873330163    7.94061581252157
C         8.09368871597641   18.92389980121792    7.22731168961127
H         8.25626462975371   18.00824997750060    7.77937251848128
C         9.63911874161986   22.30371904101129    6.60676958173178
O         9.45245686649137   23.31446346015691    5.97470767998872
O        10.69156769093088   22.12597725106886    7.41846707535983
C        11.59930064249898   23.21407186932795    7.49801455601841
H        12.00638861922771   23.44115429830344    6.51049921465136
H        12.38973544064227   22.90263288160195    8.17589137502601
H        11.09323403511612   24.10310082358118    7.88018835197451
C         4.82716355075750   18.77592456557158    5.06492049421232
C         5.54001350532880   19.98367693296295    4.92331588178722
C         5.09874666594693   20.98486730559253    4.05740143251422
H         5.65404003226857   21.90679381150257    3.96451268788226
C         3.94744691194794   20.81153336674950    3.31217808112700
C         3.24402965167287   19.61662143454503    3.44500143941373
H         2.34378012962530   19.46945116663109    2.86405841575614
C         3.67436876682579   18.62120122594111    4.30428688282953
H         3.09736752446661   17.70925700640375    4.37439478084897
C         3.46557521574982   21.87086505302003    2.36622604150175
H         3.63308618227649   21.55766613962286    1.33564069363898
H         3.99211692604481   22.80773447935379    2.52903635951236
H         2.39803094507830   22.04149806392036    2.49279393721250

