65
CSD_code = UTAWET | q = 0 | S = 0 | Stoichiometry = C36H22N4O2Zn | MND = 4
Zn       -0.00055288500279   -0.00229890673902   -0.82826441946713
N         1.23328028182745    1.03452521360540    0.39318916933531
C         0.06944832100068    2.61084390919321   -0.93177914966180
O        -0.49017643199343    1.64042108861491   -1.58501621903996
C        -0.18865598245321    3.95410898557941   -1.20241246411724
H        -0.86716465403046    4.19151507836530   -2.00657817487257
N         5.23939309270789   -1.74718864127970    5.16198102176881
C         0.40774173341161    4.96843519196240   -0.45953518211854
H         0.18018030667653    5.99447299760031   -0.71161038827570
C         1.27012281622185    4.70303160196738    0.58083478646973
H         1.71851116598072    5.50162874364384    1.15134358635184
C         1.57449196141980    3.37396079174967    0.90105495508869
C         0.98280691918119    2.32844169377963    0.14350539686683
C         2.44277874941625    2.97560188190247    1.94274817579435
H         2.92124388945510    3.73485027652846    2.54458367990477
C         2.67309889233144    1.65134752623387    2.18027278624915
H         3.34104736588347    1.34262301504301    2.96791095238509
C         2.04539842609063    0.66876993245114    1.37707127983485
C         2.22364855108101   -0.75330919521462    1.54578022047883
H         1.79747007041867   -1.33827762844863    0.74178849722973
C         2.84187574901355   -1.36869102957929    2.56583130963714
H         3.29380403672000   -0.78528825794745    3.35767910550472
C         2.98262056216460   -2.80442847379682    2.70507411424120
C         3.87395985021252   -3.31784652645862    3.67051321862473
C         4.04327504327828   -4.69166102806767    3.83287822110428
H         4.73840417348040   -5.05429799405473    4.57600086556380
C         3.32416180333280   -5.57202044810313    3.04797248331119
H         3.45368735605684   -6.63598978704096    3.17408891016356
C         2.43418387284621   -5.08156085801597    2.10214223517681
H         1.86286485953283   -5.76368248950559    1.49090483387807
C         2.26613195827470   -3.72129117315362    1.93300125411035
H         1.56003992857329   -3.37033585376479    1.19754549869984
C         4.62555702254839   -2.44417460987855    4.48842629620837
N        -1.23744706623275   -1.03623136186114    0.39292470965558
C        -0.07214868581015   -2.61557538461888   -0.92730875208654
O         0.49073750257445   -1.64663921561381   -1.58005356540461
C         0.18553312995473   -3.95943149324200   -1.19537804921906
H         0.86669913124496   -4.19849592968472   -1.99682522380627
N        -5.25784396470124    1.75444380481120    5.14423223755269
C        -0.41477279403311   -4.97225499186144   -0.45358759304299
H        -0.18711341676262   -5.99885711313806   -0.70324707212886
C        -1.28080293950859   -4.70462012077661    0.58311485299855
H        -1.73234666028481   -5.50202831981325    1.15278978197872
C        -1.58469038494962   -3.37483394318337    0.90076305665165
C        -0.98868559258640   -2.33078773538144    0.14459313849862
C        -2.45680392236026   -2.97448279419968    1.93848552548981
H        -2.93962763691052   -3.73259228632603    2.53827633813712
C        -2.68535693183546   -1.64970786760339    2.17470008050986
H        -3.35635872068541   -1.33943471992852    2.95911871428550
C        -2.05193930091198   -0.66862437099303    1.37416706598580
C        -2.22627547924123    0.75386255598058    1.54376460970451
H        -1.79439499523897    1.33869153582030    0.74276063933386
C        -2.84479775331315    1.36978449151044    2.56330959227198
H        -3.30105630804076    0.78671638325924    3.35295853279780
C        -2.97750242730358    2.80589684720256    2.70670391913527
C        -3.87149791010486    3.32164252888997    3.66840685302191
C        -4.03287314654785    4.69594077481517    3.83469620069817
H        -4.73019666816859    5.06044922286603    4.57480181417116
C        -3.30243076639374    5.57439172244873    3.05812503916959
H        -3.42510343519579    6.63873264657550    3.18793741066558
C        -2.40953416243964    5.08152065980984    2.11631478955021
H        -1.82973548693044    5.76197651114622    1.51130668250242
C        -2.24992132031645    3.72078069960460    1.94277568141299
H        -1.54193427149114    3.36764539902637    1.21028991357065
C        -4.63445642436033    2.44988684033525    4.47775621895506

