57
CSD_code = UTAWUJ | q = -1 | S = 0 | Stoichiometry = C24H18Br4Cl4MnN2O4(1-) | MND = 6
Mn        8.10942491082639    4.20730065910753    9.13167293122570
O         8.70573544660735    5.01303632611871    7.67184628376530
C         8.93333425706758    6.06045253179389    6.97390712046379
C        10.20885997245458    6.35243925034753    6.42270255591793
Cl       11.48968357613584    5.24610856302291    6.78448586338932
C        10.44210499752082    7.46482584060399    5.64668495778317
H        11.42444976349893    7.65004116808576    5.24320065612034
C         9.39636414769097    8.34533260467765    5.40869881828475
Cl        9.67819637450519    9.76117233053231    4.44865859016169
C         8.13357002953289    8.11645460030639    5.93636537420984
H         7.33582913682964    8.81768825623661    5.73849230284723
C         7.89277262071937    6.99664687637845    6.70454509530833
C         6.52515651169571    6.69027169763507    7.25255233547416
H         5.86428458315397    7.56196586811536    7.09675724397654
H         6.11010054986139    5.84040134701858    6.69743067279180
N         6.53100531025821    6.30011671109013    8.66996028821183
C         7.14649642082549    7.32822794884245    9.51072372844790
H         6.39268915182674    8.05837713684963    9.84939815068435
H         7.88232832716460    7.86706967812226    8.90948763107434
C         7.82264142124413    6.72948024754583   10.74655229982949
H         8.19135085949013    7.55366145033470   11.37895353322158
H         7.07947876304706    6.16605749297255   11.31347878228676
N         8.92709732906803    5.81243804255121   10.42948509032284
C         9.31649721455140    5.11247864859582   11.66852155549667
H         9.56316007081968    5.84964117804518   12.44930019190276
H         8.45682193059354    4.52418974818308   12.00657455177353
C        10.49644897895787    4.19912709436835   11.46863121642754
C        11.61183138910603    4.31602580559104   12.27912992959973
H        11.63829989689151    5.06712045845025   13.05495382006685
C        12.69652762913899    3.47357975645930   12.10651766402041
Cl       14.07786067925489    3.63761550756450   13.13573997508703
C        12.69438355134235    2.50582633952898   11.11684945025624
H        13.53998209425847    1.85291332692249   10.97283116135820
C        11.58332655030184    2.38876017772861   10.30709270088510
Cl       11.55862310602597    1.19958623341969    9.06409322600296
C        10.44301750154249    3.21760155945417   10.44648401642541
O         9.41987006549685    3.03442951744167    9.67063855952304
C         5.16500201565926    6.03290574311143    9.09543639947369
H         4.75598626191083    5.20745959760625    8.51310358888099
H         4.51921937097013    6.91586516563104    8.95647531381720
H         5.15076600497820    5.75644580213475   10.14726400025922
C        10.08738427865347    6.57248867517507    9.96152427019499
H        10.45114826942982    7.24595179855887   10.75048485591986
H         9.83662330469112    7.16372578166705    9.08505905975223
H        10.88903127343276    5.88742407345042    9.69056866003072
O         6.81837419449694    3.91133583080423   10.37393671572639
C         5.93519362322398    2.98051204498920   10.07304917528967
C         4.86812662306095    2.64267119868939   10.88010104272943
Br        4.66427833198546    3.61353767498081   12.49689541257203
C         3.96506080945487    1.65107483979567   10.50222283456129
Br        2.51317972704479    1.21378026143593   11.63064956810803
C         4.14284898630014    1.00460859362643    9.28614758263051
Br        2.91947145331449   -0.33832882469008    8.76104316535682
C         5.19970178834932    1.34189745974436    8.45011360801509
Br        5.42300678694139    0.50476755302502    6.76758514436109
C         6.12281582243092    2.33701882922406    8.80450780863531
O         7.09697595436854    2.74239592099362    8.08853346906156

