121
CSD_code = UTAWAO | q = 1 | S = 0 | Stoichiometry = C54H63AgN3(1+) | MND = 5
Ag       10.50427825602783    2.10029110075980   11.42778994577649
N        10.24422830270235    4.49804350805456   12.04117739765632
N        10.83764815990379    2.48558564099044   13.72524788577098
N        10.52078652405634    0.00504051077312   12.72172782513007
C        10.72355748025015    4.79933434606070   13.19434507194019
C        10.71293795366707    3.72393108402065   14.20002525886895
C        10.54255394937649    3.97878248504273   15.56030953632466
H        10.44017330912190    4.99199595484911   15.91506866382313
C        10.48847630600938    2.90452723124297   16.43318185775259
H        10.34719508840171    3.06755681545635   17.49045084696593
C        10.61223324566249    1.61842285008947   15.93367235306695
H        10.56142274326257    0.76122120988427   16.58581145178858
C        10.79037255440259    1.44855063748052   14.56053262123787
C        10.90993190681420    0.11918685610243   13.94227333581606
C        11.23162155850454    6.11821740823731   13.61100291638266
C        10.56324805227877    7.29355128001110   13.27193133071762
H         9.63825901559065    7.24220446696519   12.71935753362736
C        11.07200717714294    8.51837648895655   13.65870655257566
H        10.54310167501209    9.42235062840625   13.39889202406932
C        12.25807576461303    8.58874292770795   14.37201582359265
H        12.65903171756070    9.54748855855725   14.66180596746518
C        12.92835336720532    7.42536155037787   14.71372800027399
H        13.85220947471353    7.47575282936471   15.26958396756045
C        12.41545391306105    6.19570999374526   14.34521279623224
H        12.94510269382679    5.28887187780049   14.60221362523160
C        11.42161369314704   -0.97472198321179   14.79041706681342
C        12.58128893344142   -0.78067409469100   15.54043037640385
H        13.09362516892267    0.17022669834116   15.49606041632186
C        13.09514638426444   -1.80867270562014   16.30897192015052
H        14.00154300004641   -1.65355299976369   16.87416493658538
C        12.44871744391916   -3.03315130588253   16.35380149992356
H        12.85045144792533   -3.83410486277042   16.95487970378775
C        11.28483472693368   -3.22656856852173   15.62666351302787
H        10.77381942095855   -4.17625715122466   15.66659228013787
C        10.77616036485289   -2.20867749243664   14.84309031017409
H         9.86969325032568   -2.36167142060560   14.27823786716181
C        10.28304872872050    5.38971545453317   10.96483521787263
C        11.51892023280153    5.95200796897106   10.64514416317885
H        12.35463311375326    5.70168287210495   11.28238214296160
C        11.70903914037203    6.77111748669982    9.54401621804978
C        10.59459050830541    7.02005068225027    8.75485735675520
H        10.66546373311805    7.64705901414668    7.88218111444862
C         9.36091247778280    6.47261729024841    9.06737409488408
H         8.53750395108971    6.71309480626002    8.41660451649938
C         9.15440855382897    5.64768752247147   10.16475760084469
C        13.08614166579813    7.34990068485013    9.27216658665371
C        13.49799605378617    8.21715856546716   10.47069957792519
H        12.78285694285603    9.02422716176348   10.61463863188273
H        14.47841993057260    8.65299874266071   10.29506220154036
H        13.54188880335631    7.63765673640959   11.38970649170852
C        13.11429813141928    8.21962301175559    8.01354229655107
H        12.43597468205139    9.06424179449967    8.10593658576541
H        12.84888888619341    7.64183765555611    7.13118554243819
H        14.11780651975470    8.61217682890222    7.86725007172531
C        14.08917502646943    6.20197171986072    9.08860219813127
H        14.18448755254045    5.60680492115746    9.99319483691137
H        15.07045050213493    6.60193627321232    8.84571716496754
H        13.77488675081802    5.54810844007191    8.27707331220816
C         7.77546734979059    5.08733486757300   10.49342569829555
C         7.37755155151070    5.46308223009903   11.92712333521059
H         8.04554301722043    5.01139364880918   12.65538154338998
H         6.36854317801438    5.11411228396565   12.13430064356117
H         7.39129231720677    6.54372966922343   12.05318884828154
C         6.68573831962924    5.62780210376017    9.55911530974410
H         5.72300493484452    5.22094178042566    9.85996379838783
H         6.86092947478177    5.33263939138679    8.52760206895724
H         6.62118580590619    6.71132084988621    9.61597440109901
C         7.79142583116326    3.56041738906025   10.34485314937532
H         8.52210269215480    3.10469683514666   11.03478304264491
H         8.04140987924467    3.28523343118827    9.32274159972509
H         6.80854014879978    3.15936657469632   10.58094030364724
C        10.69824540843451   -1.19909258992430   12.02759252283856
C        11.98034183914993   -1.75680579352172   12.05167101043563
H        12.73462297203218   -1.22014503577535   12.60387890405117
C        12.30005756961058   -2.92264981742260   11.38384751777152
C        11.27432177279131   -3.52776741122202   10.66375667596592
H        11.45480413513203   -4.44291857184536   10.12210326934105
C        10.00813129297636   -2.97735799284968   10.61981986658301
H         9.26298711262332   -3.49667206597965   10.04195762052136
C         9.66957755624084   -1.80739882957972   11.29089384659280
C        13.68092740201947   -3.55083075421974   11.43634603405801
C        14.66547952611712   -2.73887157078169   12.28214427662226
H        14.32193170893100   -2.65444412970335   13.31150909694308
H        14.81292447563731   -1.74297675800294   11.86933051163866
H        15.63035548895204   -3.24027608807083   12.29103292947597
C        13.55191226108158   -4.94687364608027   12.06122326928397
H        12.91258268226722   -5.59129629245853   11.46484140421351
H        13.12798001568268   -4.87228722400697   13.06097866694251
H        14.53085177414552   -5.41405402034757   12.13513261152387
C        14.24243727139108   -3.66351412825185   10.01245218915226
H        13.59955469148032   -4.26711924173395    9.37809499455360
H        15.22568490243804   -4.12679925294029   10.03613136345365
H        14.34028011935520   -2.67697501376281    9.56263985237715
C         8.26088468442151   -1.23122602819160   11.20591827955221
C         8.31033389201976    0.01252489651336   10.31025255127345
H         8.62072325758797   -0.26171092255006    9.30539104585909
H         9.03334047658587    0.74975482275268   10.70996934260419
H         7.32866654779761    0.47699380287818   10.25893155138229
C         7.26067664998224   -2.21630124036977   10.58628178794873
H         7.23095951384709   -3.14656678142832   11.14779492102599
H         7.49944228230169   -2.43299032640544    9.54855609370222
H         6.26527547683237   -1.77863870677598   10.60813837569814
C         7.72246162438786   -0.84911421692882   12.59051825136910
H         7.77162739716249   -1.69941450247850   13.26711882602812
H         6.68112923520838   -0.54558049016053   12.50984444575811
H         8.28135067697231   -0.02020663931141   13.01899507069144
C        10.76596458607882    1.93140496454299    8.18679389637039
C        11.40203442296625    2.83870681437932    9.02966831204307
H        11.24822867332193    3.89851717808163    8.88147434325175
C        12.33515805899825    2.40234027131982    9.97350873712861
H        12.93374057397903    3.12893814896928   10.51088897511885
C        12.61665897066459    1.04086886607654   10.08931946465854
H        13.38910810028948    0.70258803735160   10.76543771480474
C        11.98273510609907    0.13502726343936    9.24995649173162
H        12.22096506969094   -0.91567912238981    9.31314551458761
C        11.07249550309253    0.57829596607517    8.30737612551814
H        10.61430624616881   -0.13038480020809    7.63303830471754
C         9.82077968206501    2.40387266528335    7.12624356631843
H         9.60382600675536    3.46323108425124    7.24015057005053
H         8.88885114791473    1.84187971344365    7.15814551575706
H        10.26210374536759    2.24927646590173    6.14206734432068

