73
CSD_code = UTAYIY | q = 1 | S = 0 | Stoichiometry = C24H45NiOP2(1+) | MND = 4
C         6.27296169459489    4.37785724251439    4.14523270495040
C         6.92914150789882    4.71891762297925    5.33480063466928
C         6.36059097243481    5.63322078155816    6.21327357568557
H         6.88373862319755    5.87852993444613    7.12563697309862
C         5.14681265273971    6.22657391450011    5.92896297889426
H         4.71352889258662    6.93736172736280    6.61456259507243
C         4.49364971352857    5.90032767307267    4.75728339140088
H         3.54351338434853    6.35636092376325    4.52125295892212
C         5.04078621437649    4.98283044971928    3.86827771159633
C         4.28373372102478    4.62025298560736    2.62292474330930
H         3.80787174662960    5.48862100630599    2.16199416035125
H         3.49885216558222    3.90739037876351    2.88921278985726
C         8.26852919112381    4.11953513016487    5.65065237782200
H         8.36745594641705    3.85810648236237    6.70631482655147
H         9.04386925656171    4.85217633302013    5.41195329040416
C         4.41650937273957    2.52362876705123    0.59915313523099
C         4.20077806063094    1.42118061702218    1.64522495236047
H         3.52196674029512    1.74530671916241    2.43084514434921
H         5.14657357459160    1.13978149008393    2.11672837230322
H         3.77332270076323    0.53402535532883    1.18250711958588
C         5.14266833827694    1.93029956595197   -0.60795623598780
H         5.29637387683727    2.67440611042386   -1.38515731141278
H         4.53951887291596    1.13094909005526   -1.03638339830017
H         6.10383827336063    1.50226966389738   -0.32993831900647
C         3.06593443262585    3.07142967504949    0.14439787155572
H         3.17422956969862    3.79304719475253   -0.65879163736939
H         2.51546196935176    3.53694399845375    0.95670033575308
H         2.46166123108587    2.24675620350448   -0.23110201046309
C         6.13640150643633    5.17632495915420    0.39796386336735
C         7.36564119747896    4.64655203475221   -0.34577643854449
H         8.10680681839281    4.29283292646924    0.37347951695030
H         7.82227491535509    5.44864398429652   -0.92271268300391
H         7.11519136750145    3.84496638265040   -1.03616746653595
C         5.11148876391642    5.73536104938181   -0.58039632689018
H         4.18470034112991    6.00487015351994   -0.07906198380825
H         4.89026780679651    5.02765290296944   -1.37540424779131
H         5.51173916812225    6.63577996053384   -1.04373078891543
C         6.61191489896177    6.27214660482931    1.35628896535385
H         5.78254928966824    6.77096554768774    1.85012377724419
H         7.17702538539989    7.02269660102714    0.80718146297523
H         7.26538913471681    5.84679556026231    2.12460814751345
C         7.84393486892418    1.20241891639798    5.55835615775301
C         7.64083241386628    0.02441598752035    4.60246659871832
H         6.93738182313772    0.31085164693003    3.81795510289444
H         7.21576855826018   -0.82179029331107    5.13902982218903
H         8.57343746634392   -0.29945989449716    4.14893451014966
C         8.76667541496094    0.81678064067688    6.70718431518473
H         9.68820759841487    0.36789014653883    6.34571405848887
H         8.26765518581183    0.08243554392241    7.33769226072939
H         9.01083514159822    1.67556438528307    7.32844216714390
C         6.46902303035253    1.60964896080011    6.09547885551025
H         5.84194000828878    1.99169644737657    5.28459538579710
H         6.54081320178646    2.37580872661279    6.86237044680366
H         5.97291489162956    0.74435150138275    6.53078503911045
C        10.30085790050066    2.63506957504829    4.16155735550599
C        11.17899928569630    2.89342192660549    5.38309348826028
H        11.11857333350334    2.08333198510068    6.10267027796005
H        10.92418703416563    3.82282260603615    5.88454928321002
H        12.21555518657787    2.96995337440727    5.05777878909318
C        10.47694130336661    3.76946561321111    3.14445976665322
H        10.29541843920752    4.74347000349015    3.59466057314871
H         9.78281994366992    3.64414221661978    2.31073010397751
H        11.48960778837875    3.76927123163213    2.74679017805150
C        10.71008241163224    1.31639060185802    3.50845507857753
H        10.65643980638810    0.48972436018381    4.21210967656303
H        11.74009068278148    1.38610922492798    3.16218227703416
H        10.08228422279658    1.09783475309811    2.64816572821732
O         7.99249222359388    1.76825272312279    1.55402779766944
H         8.02375291758707    1.99154848458740    0.61770565991870
H         7.82274833601256    0.82527703047971    1.64263494138985
P         5.48988631299945    3.79258378438931    1.50605734842424
P         8.45022623596539    2.66667397965525    4.53508321904479
Ni        7.05265374171404    3.11756810551921    2.90302420772467

