87
CSD_code = UTAZEW | q = 0 | S = 0 | Stoichiometry = C24H56N2NiP4 | MND = 4
Ni        5.52975964378705   10.62079715815772   14.22820486542222
P         7.10217369098805   10.85510916663095   15.74804956761476
P         6.49847622921755    8.64567636634759   14.53691931180620
P         4.52704081320009   12.58400245924515   13.95360787948236
P         4.01941587090802   10.40717845735653   12.64406669119858
N         7.49965766978514    9.24814009874935   15.70895617051222
N         3.51509358678106   11.97722257266771   12.79287729803474
C         6.38479881815490   11.20025331481351   17.44892315935509
H         6.40529873674968   12.28624632027935   17.58941159945586
C         4.93381054393892   10.73449653052296   17.40399228487068
H         4.89138543189186    9.64860438315720   17.45106785340773
H         4.46946773595344   11.05891285657924   16.45965169672466
H         4.35618983029810   11.13947575589438   18.23453087886293
C         7.15950303679024   10.50030364923073   18.55564469676322
H         6.54508909756093   10.41116803783552   19.45104601774780
H         8.06188421741533   11.04623028231262   18.81699687972651
H         7.44410407638920    9.50265019140629   18.22484970489231
C         8.73092578584863   11.77644278683249   15.66236508195572
H         8.98725490228785   11.73416204376467   14.59387824881231
C         8.57056382546124   13.23742668336276   16.05785898139846
H         8.45481551166245   13.33654241877738   17.13524669035143
H         7.69252921133719   13.66389241042523   15.57370045598428
H         9.44579976374185   13.81228509455357   15.75755653161497
C         9.82844496386081   11.05823974109502   16.43352427148385
H        10.81079527894379   11.34535262490156   16.06105459765768
H         9.70771724555240    9.98246230509739   16.31603237459774
H         9.78363988812414   11.29614080010489   17.49251419931418
C         7.60791186661464    8.20052213564407   13.08267195106395
H         7.04075786180504    7.53966570823985   12.41879909094536
C         7.90837382010149    9.49802899633449   12.34742812718691
H         8.58320578350923   10.10913947468199   12.94681286753242
H         6.97395105443563   10.05282419350225   12.18907222923431
H         8.37340083850283    9.31692601247797   11.37923967631290
C         8.88674268922176    7.51885853710029   13.54551762573616
H         9.62838325090226    7.52416594893698   12.74767838923224
H         8.70849802774859    6.48619834956905   13.83602354547386
H         9.29060721013845    8.05622566792060   14.40243310608870
C         6.02196137370905    6.94802042233965   15.16304832308229
H         6.98023508474346    6.41960125403089   15.23336423756362
C         5.42320504856121    7.02249686986179   16.55933299403660
H         4.43512390441816    7.47938296636984   16.53562241029358
H         6.07329462438952    7.61043949024685   17.20402675601857
H         5.32570883605914    6.02432284757781   16.98488537924102
C         5.09140371786657    6.22475792905432   14.19941735183285
H         4.84338967682348    5.23695279429460   14.58683684441691
H         5.55126575989458    6.09760642774899   13.22186187658892
H         4.16719122965834    6.78513575380296   14.07536369962772
C         5.65687779012306   13.80504077262495   13.07252316989987
H         6.13085660984099   14.43258378043534   13.83452972752904
C         6.72974054722973   12.98360993155588   12.37352844694675
H         6.29092433153782   12.45471662458152   11.52747282193694
H         7.14205598351479   12.24760871843914   13.07657492479635
H         7.54351723181207   13.60797643102423   12.00699584841824
C         4.88481919749692   14.66340021454390   12.08182853073245
H         5.56976957922257   15.14982400724658   11.38844293438470
H         4.30669653804484   15.43503018468749   12.58470794219406
H         4.20244569652815   14.03193749406333   11.51452245869614
C         3.44723434145453   13.74293805399872   14.94963887661822
H         3.12640356031716   14.49219801136781   14.21607534176555
C         4.21758636916783   14.40976636362248   16.08080061985254
H         3.56556176359201   15.08783741485355   16.63075864275308
H         5.06045133539591   14.98466240091323   15.70353142095217
H         4.59407817540995   13.66046444330647   16.77387677223281
C         2.20637887633182   13.03275724730956   15.46881345403145
H         2.46328100517000   12.32323824178047   16.25380203830684
H         1.72148823516563   12.50192389386085   14.65207899573590
H         1.50014588199595   13.75323647672150   15.88002207386805
C         4.23653715120802   10.12222153896133   10.80546112991320
H         5.20905795454816   10.58889657882041   10.59207896660957
C         4.33533228852581    8.63956717489525   10.47591734610130
H         3.35882907198322    8.16343839903377   10.53676838407966
H         5.00778122638468    8.14312097735565   11.17493021801195
H         4.71832908351647    8.49767744274498    9.46604013023081
C         3.18009807051402   10.85387608770728    9.99083078201843
H         3.52916669019995   11.02425931817152    8.97332143818066
H         2.96724338941793   11.81518496968486   10.45587277911269
H         2.25721234053965   10.28294146733446    9.94248540438187
C         2.58809086423586    9.31841210156315   13.18513600303634
H         2.79455730049352    8.31040005837799   12.80991282697023
C         2.62069187859504    9.29523130442786   14.70914800215546
H         2.23916517566580   10.23482292258116   15.10253528754199
H         3.65845392697189    9.17023285620566   15.05571206101447
H         2.01765771858084    8.48158577187669   15.11134538727145
C         1.24989027787914    9.82203446345350   12.66496817971612
H         0.43376959491001    9.41783225833090   13.26309642194600
H         1.08891801138353    9.52979681662987   11.63087688280925
H         1.22295786933820   10.90903049510370   12.72397285680281

