89
CSD_code = UTAZIA | q = 0 | S = 0 | Stoichiometry = C24H58N2NiP4 | MND = 4
Ni       10.70317527291146    3.61504842869302   12.28961928898783
P        12.22549218577919    3.20768808453544   13.81156767110912
P        12.50091204670248    3.96485472976566   11.08993423426917
P         9.09862460047636    5.09676681564737   12.45939599942032
P         8.97880569481403    2.30295010187794   11.97388962186966
N        13.27848518781053    3.36069607486738   12.48336370590326
H        14.28819976727825    3.36434036266139   12.59064111887806
N         8.13371284712217    3.78528181409230   11.96398168163375
H         7.11963719349189    3.83555519932021   11.94757780208876
C        12.89036309343652    4.41729626613699   15.08627083299123
H        12.28641632838292    4.23186307701961   15.98237586946052
C        12.58671667913676    5.83047209999702   14.59749366502361
H        12.59763793299957    6.54423978838411   15.41999388184320
H        11.60353472774332    5.85598553756326   14.12024343021105
H        13.32754441643675    6.14265889373236   13.86480824532487
C        14.36402892180481    4.27061262531591   15.44477417383969
H        14.98980225878134    4.32524280262863   14.55500164374792
H        14.56369248481074    3.32964282501802   15.95133883962820
H        14.66269512834205    5.07972149983653   16.11110828494316
C        12.77421889402874    1.57616511827796   14.54099317279355
H        13.83575155942460    1.60438120815773   14.80644026915013
C        12.54171669197066    0.49874268968984   13.48722762924795
H        12.47877089766925   -0.48912821271808   13.94197815156096
H        13.34623109579249    0.49035064703632   12.75810304742697
H        11.60770068044688    0.70688559336877   12.95923035450965
C        11.93173380403438    1.30080328023989   15.78208174019451
H        10.87480504990256    1.35754476086373   15.52428175021893
H        12.13396012028625    2.02487481715912   16.56856130551940
H        12.13740393440130    0.30589747578618   16.17581301622504
C        13.31676793520496    5.65309475408213   10.89558222831784
H        12.81581990942268    6.26173147892125   11.65952011467105
C        13.01626195390416    6.27692015838901    9.53740730364744
H        13.30121903221963    7.32905460769543    9.53575628958816
H        11.95367303055553    6.21362748432659    9.31350512269756
H        13.57404769185976    5.77840100234020    8.74756413776426
C        14.81662897263000    5.67368651272133   11.17274766341933
H        15.35514725903111    4.99934906034005   10.50954706467922
H        15.03542314909713    5.39542059016009   12.20146547084250
H        15.20478718729069    6.67954466810569   11.01345639835071
C        13.31696583612589    3.01051667874952    9.69150574521934
H        14.25917307313491    3.48542865737917    9.39982381253045
C        12.35132927839876    3.02814813912016    8.50853740179935
H        12.74593781849040    2.44519366115424    7.67671637777299
H        12.16329040796131    4.04023666473041    8.15951107348586
H        11.39931577558024    2.59592045452675    8.81348839300041
C        13.58248762352699    1.57193288072542   10.11130119498184
H        12.67516388012827    1.14214251099994   10.53269754139571
H        14.37092201574693    1.51959605794387   10.85857996003193
H        13.88479397862844    0.97280398225459    9.25268075159730
C         8.58097656446072    6.42421055972266   11.24898843959332
H         7.50400830757479    6.61003475348052   11.30945273691380
C         8.93535683447943    5.93406241529783    9.84907744890506
H         9.01867237190167    6.76559106539861    9.15030379815623
H         8.18107202675023    5.24732359671746    9.47707981056895
H         9.88992695302414    5.40272624584117    9.88436576266430
C         9.35122111021853    7.69817210174856   11.58012708488701
H        10.41889249492000    7.48253693185591   11.60110696912039
H         9.06110887734005    8.09720946684825   12.54983704069757
H         9.16945048225496    8.46629263300296   10.82904773049581
C         8.29154811578420    5.71063358869023   14.04081789849532
H         8.83720467070420    6.62864857518572   14.28911206902561
C         6.80395631596067    6.02870083683572   13.95381282136793
H         6.24121202542396    5.16962077573810   13.59096151780833
H         6.61006999748996    6.87255700124501   13.29628602619959
H         6.42363850025891    6.28080129909679   14.94359877268533
C         8.56742695227565    4.68699052708452   15.13821884868175
H         8.46612404495518    5.13119674744921   16.12743334789569
H         9.58029010647369    4.28998617188074   15.03087707044615
H         7.86824253472445    3.85712659608897   15.06356468059760
C         8.11488088051191    1.37669134375151   13.37016393646472
H         8.54055750835164    1.83414528294481   14.27274616213585
C         8.48256707279023   -0.10273909367411   13.38378700841017
H         8.15944469982820   -0.56175671998281   14.31816673430012
H         9.55938314190371   -0.23081928933099   13.29837406709209
H         7.99803745361998   -0.63223436729974   12.56622601454652
C         6.60003550222272    1.55059316941119   13.41254342531502
H         6.13198925207744    1.20565973135395   12.49246735404158
H         6.32263720949267    2.59019063649296   13.57334247011880
H         6.18744720884351    0.96785871199900   14.23598206848455
C         8.29036966463366    1.40604277609918   10.47233325665244
H         7.35350658418964    0.89907417109860   10.72467614412136
C         9.32922710097746    0.37048966196189   10.04741805732396
H         9.00672051839979   -0.15687083067457    9.15000238743454
H         9.50821053334354   -0.36206909237391   10.83028688573664
H        10.27247910584410    0.87129030080997    9.83429361872341
C         8.04632026541660    2.38183379018722    9.33012494860927
H         8.93954322531742    2.98234427124920    9.16618494234236
H         7.21614396776248    3.04821885909979    9.55267746421228
H         7.81587451235313    1.84365038804385    8.41094870492437

