68
CSD_code = UTEGEG | q = 0 | S = 0 | Stoichiometry = C27H35IIrN2OP | MND = 6
C        -0.14509148664860    3.27947774861850   15.23678900843193
C         0.66059226164614    3.83521106051110   16.22873471303281
H         0.99597297547353    4.85792028019585   16.13991873470252
C         1.05279856609687    3.07712685960802   17.31713462919107
H         1.67599040985517    3.51919715722532   18.08078591468172
C         0.65406593953648    1.75384142764719   17.42328432362256
H         0.95855129500729    1.16122599323039   18.27368255259911
C        -0.12657999380668    1.18971700809815   16.42801018244493
H        -0.43042699637984    0.15481639365488   16.50076927195087
C        -0.52187356813072    1.94549330343241   15.33733787131764
H        -1.12454406516911    1.49426602381057   14.56211556159361
C        -1.99863367637562    5.33105776530758   14.60360478728169
C        -1.99260319444986    5.71016550742635   15.94082427419188
H        -1.19733882820873    5.38828060417433   16.59573269292273
C        -3.01379778786735    6.49775605829379   16.44348969923852
H        -3.00231800217945    6.78573942774198   17.48441690818245
C        -4.04370854833882    6.91786373326498   15.61960247043510
H        -4.83781634224406    7.53317112891604   16.01607361751415
C        -4.05243587368363    6.54744147902805   14.28407866075587
H        -4.85357752904458    6.87352540722637   13.63687869808762
C        -3.03495915090945    5.76258993905293   13.77772423127432
H        -3.03699133981321    5.46949460597986   12.73752025849071
C        -1.55276426670423    3.26716773644813   12.68593880669117
C        -2.70433114878474    2.56886049827279   13.01973902895855
H        -3.14193410955760    2.71344074226397   14.00001760289824
C        -3.28537104690196    1.70363833438831   12.11341218209112
H        -4.17952439921345    1.15658928471776   12.36950901915687
C        -2.68641239171411    1.53557448581683   10.86854639189668
H        -3.11536957077782    0.83684193932254   10.16325023152447
C        -1.56354463343697    2.24092257643454   10.50682228971717
H        -1.13232446446555    2.07600408887085    9.53037877910010
C        -0.97419270662011    3.17710585871378   11.38990058139702
C         0.68989162674786    3.92032263652838    9.80270511535915
H        -0.05591477421405    3.84327197626325    8.99810901819409
H         1.35170281394215    3.03990493202474    9.71294839915483
C         1.48159871820021    5.20759786209809    9.56799322093286
H         2.10476310568045    5.10565080904453    8.66596828535402
H         0.76819088984838    6.01796798416184    9.40343872873462
C         3.45703321411697    4.67825846542177   10.83503206607578
H         3.12869508368753    3.64863834299137   10.94690020420282
H         4.05684722882550    4.95646833877367   11.70163347906795
H         4.09110003159413    4.74199049033243    9.93954324849375
C         2.83683346985694    6.92771720659769   10.51912078460679
H         3.44476092339881    7.22313783648369   11.37230895376860
H         2.02426830287700    7.64304619346701   10.41496697788189
H         3.45522877474842    6.96983392194289    9.61390394703255
C         3.29388853371184    2.97774962339485   13.96405922754497
H         3.32382925792524    3.83331514181664   14.63684461324862
H         4.17138813586528    3.00650978444987   13.30035414342761
C         3.22311080424233    1.63271750559455   14.68954331020411
H         4.21494930858512    1.21675046932156   14.85145531375939
H         2.73320957067494    1.75158265286296   15.65419306571296
C         2.36542665484102    0.76926634906055   13.75187467160971
H         1.53136862716699    0.32245656596238   14.28910387041966
H         2.94337315290806   -0.02872867734636   13.28825058383749
C         1.86404116920046    1.76192039542348   12.69078289205907
H         2.41789259045618    1.61587120080321   11.74917998233031
H         0.79667227820731    1.67104478308223   12.48629740833673
C        -0.34054345520986    6.75953344723319   11.94331328721713
H        -1.08416168658655    6.43986656165435   11.21259299277054
H         0.22478771651873    7.58875181440277   11.51740930362571
H        -0.87015821784466    7.14941083533248   12.81392292116595
I         2.25717862421630    6.66085011164841   14.17101696744568
Ir        0.91934849350726    5.16775841404340   12.44613332684333
N         2.30956825617492    5.57721124947043   10.72535968103209
N         0.06009820833826    3.96896207344859   11.09369663469703
O         2.10604051803767    3.05769031814700   13.19698993908511
P        -0.67581427637934    4.33127792636853   13.83892945940696

