90
CSD_code = UTEKOV | q = 0 | S = 0 | Stoichiometry = C41H39Cl2IrO3P2S2 | MND = 8
Ir        7.28949084912406   10.29443996041057   12.57375063141178
Cl       12.34880556454394    4.74302956965598   11.79546100660514
Cl        2.93438487347123    4.53958555385375   14.87734983904790
S         5.08144747951839   10.62958169482782   13.85274328562245
S         5.88427627165950    8.61794360791217    9.74942955385873
P         4.45678595989737   10.21286377273812   12.00034463640533
P         7.78147749220236    8.52674102362172   13.99540994854633
O         6.80549757435624    7.51022566884780    9.71046459618599
O         6.16863169859868    9.70657054716858    8.84110964539794
O         8.18497607754909    8.99839897144854   15.33517812927142
C         5.80507170911905    9.14887222493601   11.45283933440481
C         4.11738733825923   11.75828556251867   11.09541385667949
C         3.48556034116821   12.74599659850096   11.84914190879079
H         3.28239650688739   12.56098022346167   12.89579530654656
C         3.14193655027586   13.94924902350464   11.26447014028239
H         2.65712813659332   14.71463678782119   11.85174490750599
C         3.42538477887386   14.17200225943342    9.92517585495336
H         3.16197580636563   15.11412815892560    9.46768679545238
C         4.05047256402290   13.18901321937247    9.17674390904470
H         4.27637814003369   13.36337488015216    8.13506554000134
C         4.39632118410700   11.97715282500276    9.75400300533327
H         4.90150598383523   11.22195852118293    9.17424529705455
C         2.84799015271598    9.35356193110957   12.01438427355822
C         1.81828688619222    9.67263947380614   11.13915850305143
H         1.93985092417287   10.47885527526865   10.42940889684509
C         0.63699934847190    8.95504600531794   11.18875476178065
H        -0.16812337649634    9.20423149160378   10.51371672304754
C         0.48484433092051    7.92306350816678   12.10047097966693
H        -0.44009094482706    7.36713404780727   12.13268013719782
C         1.51204630965391    7.60738965818616   12.97568599307998
H         1.39324563096190    6.80697126123184   13.68966102137673
C         2.69272665376342    8.32362111536256   12.93486380737902
H         3.49684291665863    8.10660263374390   13.62484038172903
C         4.24465038361122    7.97862540861524    9.36777453465007
C         3.79694044315013    6.86961259843863   10.06118251714552
H         4.44045608669996    6.40271588267909   10.79058261135959
C         2.53728744259805    6.36474198055603    9.79109685329951
H         2.17709603329432    5.49999062914176   10.32689997575972
C         1.74273645478437    6.97007141886656    8.82974328079144
H         0.76183530778604    6.57221164868319    8.61718357822128
C         2.20440065569861    8.07491711702319    8.13358158619121
H         1.58741134515376    8.53694851871161    7.37767184850206
C         3.46375432655526    8.58485253706102    8.40474933986943
H         3.85609842792247    9.43445164164705    7.86792884316626
C         8.53815006979576   11.93251642678400   13.31516442658365
C         7.77127532885044   12.57729160488405   12.26065860340050
C         8.07710917827431   11.95044029387158   11.05127151427839
C         9.00876370233336   10.87104212871102   11.32647034222322
C         9.39546683345225   10.96819515611610   12.71244960575329
C         8.64869029093947   12.40298982120519   14.72828944217159
H         9.54473009658426   13.01314026510518   14.85213874262152
H         8.72058417431178   11.54652895318305   15.39572100749167
H         7.78144188553311   12.99171576676801   15.01339283829997
C         6.89977862257288   13.76945214521120   12.47724964113092
H         6.31536214382360   14.00041079484785   11.58945227776883
H         7.51445405116476   14.63643695147124   12.72435228194899
H         6.21267245660307   13.59907643287688   13.30530898893161
C         7.69775034197387   12.37007578477109    9.67220487554144
H         8.57859215276948   12.76575247969666    9.16346465610903
H         6.93293071946620   13.14256303244838    9.68687474335112
H         7.33334893306713   11.52300320675600    9.09520025643647
C         9.70608058316178   10.09918073577242   10.25410846969459
H         8.98847255315290    9.72317677407759    9.52707928088868
H        10.25374244948766    9.25690643994891   10.66858591488503
H        10.40943751982908   10.74984823101896    9.73094114227483
C        10.57331316490709   10.33433180813283   13.37498551571697
H        10.97573057574834    9.51973093433640   12.77945543265682
H        10.30190359271676    9.95115897602106   14.35578339312018
H        11.35210441916408   11.08706379111723   13.50808914148529
C         9.07520507850237    7.43271236265233   13.28976911825355
C         9.12680727121201    7.08161670044940   11.94737390477093
H         8.38765684961738    7.45659221224944   11.25451679084305
C        10.13066452709938    6.24796867499056   11.48680746867692
H        10.17121973108753    5.96997950931175   10.44506086632892
C        11.08596471126944    5.77553959716524   12.37358262274303
C        11.04957054584733    6.12160596480365   13.71535384004856
H        11.80147456425876    5.74617312059488   14.39216373280437
C        10.03908930644830    6.95135969982480   14.16458809283190
H         9.98595761933927    7.24257116670938   15.20316125904668
C         6.41033087188292    7.30766169417863   14.18667095766747
C         6.13730788158854    6.28845822429932   13.28090959304676
H         6.76182215855211    6.15498373871706   12.40971250237626
C         5.07254885108633    5.43103807473749   13.49774618887793
H         4.85856150819891    4.63254017272142   12.80319076796195
C         4.28084889602021    5.59848298525860   14.62368694801059
C         4.54814120100585    6.59987901341576   15.54413485638601
H         3.92729905280690    6.71276668580131   16.41946852126851
C         5.61501888978644    7.45063840177232   15.31574926926474
H         5.84978799367490    8.24331329635288   16.01015520359634
H         5.58075803113772    8.19350333054710   11.94681738436960

