47
CSD_code = UTEMOX | q = 0 | S = 0 | Stoichiometry = C12H29I2NNiP2 | MND = 4
Ni        4.29927799323204   13.08571414128941    3.43619454500779
I         6.11271660241017   13.31945757292345    5.07533544280683
I         5.52119436669502   12.12929246588803    1.54052852758778
P         2.37546979966557   12.73457608573143    2.55139845735940
P         2.94055283531024   14.17263559604661    4.68412041985510
N         1.62473360138957   13.79603562990294    3.65891833293540
H         0.63552315215117   13.93699453164896    3.82467766906698
C         1.80182196132963   11.02822666590617    3.03065625603068
H         0.72350886665538   11.07525710183248    3.23997552880436
C         2.08398811114950   10.01593233672522    1.92531308226860
H         3.13249579935785   10.04773741477358    1.63214542372207
H         1.47108973820726   10.19751637887923    1.04498682952334
H         1.86622542819906    9.01099481089158    2.28427592624457
C         2.55404606632775   10.65497528825908    4.30711282922947
H         2.36501893951230    9.61914620233219    4.58424997759169
H         2.24741290197841   11.28740903957155    5.14187321543434
H         3.63969146479699   10.76301601752084    4.15877273480633
C         1.61251649622819   13.06595000094573    0.89795272888480
H         2.01252434845219   12.28248399438073    0.24335858536384
C         2.08960731718645   14.41439072057306    0.37043884617139
H         1.76356768406952   14.55500461469917   -0.65840035338339
H         3.17847925170259   14.46781387554085    0.38832667919763
H         1.67990366569136   15.22859398472460    0.96852081816520
C         0.09115948295697   12.98639745048200    0.94395780895199
H        -0.31770425116782   13.75521091874310    1.59934581710503
H        -0.25372699312688   12.01366347929766    1.28904041232154
H        -0.31299503371027   13.15251753357099   -0.05341745076921
C         2.38715630788005   13.87882701958797    6.44108142948993
H         2.70464905154740   12.85048314156588    6.66554221389215
C         3.12565603830128   14.79727906844241    7.40970727450012
H         2.79089894064324   15.82823596414638    7.31728751980310
H         4.20072789867521   14.75355707019548    7.24034970957372
H         2.93679665498627   14.47253774167184    8.43158538012936
C         0.87269193760783   13.96165115373994    6.60541800221595
H         0.61591863962231   13.79889216764057    7.65108475513709
H         0.36500814434583   13.19637902241185    6.01840299983872
H         0.49001917888773   14.93803931468844    6.31370191874570
C         3.24503356748772   15.99441068250610    4.47204554579661
H         3.94646227092943   16.26425644760437    5.27046669433545
C         1.98450385155989   16.84380954862720    4.56566480405845
H         2.22684942515492   17.88243045128432    4.34477553035507
H         1.54363253514562   16.80711969862857    5.55976011354643
H         1.24118469649152   16.51140397901491    3.84078437646352
C         3.94974021732331   16.19097900605984    3.12934969340570
H         3.24379716772167   16.09762986686450    2.30622296226373
H         4.75093697016121   15.44738300869732    2.98790520871432
H         4.40923690887339   17.17605179354606    3.07400477744707

