75
CSD_code = UTESAO | q = 1 | S = 0 | Stoichiometry = C35H32ClN3OP2Rh(1+) | MND = 4
Rh        2.77200667386509   10.94509931403968    3.30160647115784
Cl        4.17972003280254    9.16357273840043    2.98345121564728
P         1.29289880177600    9.36219063838569    4.01475197433580
P         4.39750624457173   12.15478529401311    2.24359763842728
N         3.79429534033372    9.79303075636313    6.06480696193273
N         5.21005619338399   11.15866509704958    5.26809735472403
O         0.76573055825961   13.14713430299041    3.24038726448806
C         1.95063774000136    8.32276598190984    5.39830189467192
H         1.14314474834643    7.72212851455630    5.82358185634384
H         2.73487692906596    7.66998253971876    5.00720523717102
C         2.52866064306961    9.25082468999677    6.47447844168379
H         1.84572153207575   10.08458445501199    6.66201960921829
H         2.68870520804350    8.70392620734877    7.40814567742733
N         3.92063826893681   10.97851140135330    5.49482496973829
C         5.73801606694745   12.35396350989849    4.67190713095010
H         6.66631989671147   12.60533773370950    5.19383504648293
H         5.01265118371238   13.15709969055538    4.82778289203218
C         6.00389878353735   12.15533407993710    3.17457596769491
H         6.49553369283163   11.19366961973135    3.00583032849357
H         6.64099574999435   12.96295585984710    2.80737347258629
C         4.99337784806758    9.13824687607422    6.11927767361639
C         5.37297734777063    7.88108292504870    6.57246170749848
H         4.65930258983050    7.17941782188919    6.97118332264669
C         6.71395172008156    7.57139734253705    6.47965405231698
H         7.05563857928575    6.60489602911262    6.81423573120407
C         7.64786318346333    8.47332862000600    5.95862609897267
H         8.68355981373776    8.17744167609340    5.90698680701240
C         7.28129339412053    9.72381395082846    5.50623358722490
H         8.00596651241685   10.41169636939117    5.10322927499789
C         5.93232335738004   10.04437668792312    5.59327542931243
C        -0.33185071139507    9.80067791733861    4.71262495760495
C        -0.44850469907765   10.96408852085411    5.46671817482890
H         0.41169170949795   11.61305535309244    5.58560029309220
C        -1.65824854622309   11.29942405018951    6.04650195526086
H        -1.74425862672931   12.20352529551209    6.62992021427691
C        -2.76005332443442   10.47821561609322    5.86933673027890
H        -3.70660023084065   10.74340909911899    6.31422567345543
C        -2.64991385657128    9.32112665277036    5.11502982631670
H        -3.51005066477755    8.68481764229807    4.97242805317064
C        -1.43996718917194    8.97851460997719    4.53890854917007
H        -1.35553649492673    8.07836676843002    3.94621180893047
C         0.89761331942204    8.20252598775741    2.68144698905605
C         0.90880285842818    6.81770517569988    2.79362525215054
H         1.14916523262142    6.34205153082243    3.73299017220296
C         0.61157953344888    6.04066632148424    1.68644962009174
H         0.62252653923279    4.96450951797320    1.77207073267262
C         0.30546204175059    6.63479820349873    0.47347942139464
H         0.07890693145603    6.02059827813165   -0.38447694315619
C         0.29250512479042    8.01651968932049    0.35859802363055
H         0.05399418422675    8.48027066002743   -0.58686700723886
C         0.58970412861918    8.79705653500521    1.45839160854958
H         0.58570825221445    9.88201822876215    1.38773395201349
C         4.82653826328908   11.44006233060625    0.63537726463771
C         6.09976840876752   11.48558389642202    0.07659571162581
H         6.91128518517477   11.97437217989419    0.59624136026048
C         6.32709120474633   10.89766245332046   -1.15537580111457
H         7.31593090720924   10.92946267252604   -1.58775051594745
C         5.29540761172062   10.26648903510091   -1.83169509081104
H         5.48352233954538    9.80506720832485   -2.78902343179989
C         4.02540023809952   10.22137098750858   -1.27876392816125
H         3.22295991267128    9.72388126497342   -1.80221063245686
C         3.79226178352707   10.80695922989965   -0.04932577808313
H         2.80548228166579   10.76597706000774    0.40664688959151
C         4.20934329420805   13.93962503295078    1.92352507808769
C         4.62134626018881   14.52377858749567    0.73123153056050
H         5.04266414674018   13.91243357146004   -0.05372504086532
C         4.48061170123174   15.88784371953516    0.54550303724668
H         4.79753911688760   16.33574741984100   -0.38401255526162
C         3.93187442097850   16.67551681055459    1.54373134308970
H         3.82148252349296   17.73829367857494    1.39345332295888
C         3.51437401409149   16.09727545800247    2.73195266639942
H         3.07779440171916   16.70756782038520    3.50785278367523
C         3.64715597854735   14.73437544649223    2.91878892028175
H         3.29734680608970   14.27687378786870    3.83685662378517
C         1.55697505343360   12.32647797036338    3.34255309453912

