105
CSD_code = UTIHAI | q = 0 | S = 0 | Stoichiometry = C38H56CdI2N8 | MND = 5
I         7.77532505505208    9.13085405220138    5.32868723049197
Cd        5.60782100022090    9.82274727899018    3.85617626127495
I         4.01421901432099    8.16645619447423    2.38097761171413
C         2.93445702640265    9.45827693977540    6.15146879545437
H         2.86407867380734    8.38891026648962    6.08981455369089
N         6.92503314972003   10.61059800026017    1.98799851144469
C         2.23205750442940   11.81035606682850    3.20940193466872
H         2.28399768108391   10.73571706463799    3.29802611720160
C         7.55935795228746   13.13217040955119    3.94632241000402
H         7.97646006641222   12.13814213022993    4.00506080249435
N         4.46746652142351   12.48675573680203    5.47561497624752
N         3.94879279961410   10.12655628707385    5.58456722821333
N         7.22662677883393   11.96996546601071    0.26356631204037
N         5.22569971148981   12.25076537938508    1.46398913060106
N         4.46580948149367   11.79996624259984    2.38676161394017
C         9.55008401919237   23.59562726932046   -0.20491132184229
H         9.17562148797292   24.08206535183832    0.69291540436891
H         9.43320864329860   24.28178852694269   -1.04099548605354
H        10.61177688644921   23.39904966845625   -0.07111695613239
N         2.59092138152857   11.58308382897606    6.56102327034454
C         6.39891129908011   11.61211200429955    1.28716121873957
N         5.53578375740980   12.24622343378393    4.81061104460863
C         8.10166814610318   10.32302583940305    1.41342581434864
H         8.73371889018668    9.54238813318067    1.79263680709432
C         2.10137390258731   14.56787040291435    2.88350622096787
H         2.04886964318883   15.64058528459017    2.76617313296566
C         7.45427625309095   15.50367310543688   -1.10200140382901
H         6.38766822478238   15.67666291589093   -1.25916085679252
H         7.89239744517197   15.23916142894518   -2.06711345692848
C         3.31153111394779   12.50014819641280    2.64388699519526
C         6.25373294672517   13.34967279858909    4.40286818353412
C         2.08061773650581   10.34887270215554    6.76739717281010
H         1.17403479243822   10.18529471831605    7.31368761638852
C         1.81362052732549   19.73112784847340    7.43765583991889
H         1.86082774110134   20.40846406563311    6.58310131159435
H         0.76075855886242   19.59930028458765    7.69901942802229
C         3.73601685969021   11.41579972353509    5.83797091424438
C         8.65759278244943   19.20535997001933   -1.09608160967949
H         9.71913319096007   18.99667424236028   -0.94262992002060
H         8.23326228946747   19.49926074676489   -0.13463085412114
C         7.00876649404941   13.05594949759975   -0.65282666769262
H         5.93013767618720   13.18802150518752   -0.76209367811732
H         7.44073300803309   12.78925097322349   -1.62096965897610
C         8.30833803626319   11.16253322874278    0.34006049636469
H         9.12101602105692   11.22443851477106   -0.35466393102499
C         7.64287162321753   14.34612815327012   -0.12658653040288
H         7.19097110907988   14.59420623932423    0.83638837731145
H         8.70984599154595   14.17911129409249    0.03992942495504
C         8.30371111451935   14.18795312167392    3.46250430870844
H         9.31232377504492   14.01874114697588    3.11599538434111
C         9.31187045586135   21.59490137677961   -1.72236044644281
H        10.35918953803835   21.31968799425583   -1.57638988067562
H         9.27059280151158   22.29913729210091   -2.55696782407863
C         1.03906654556372   13.87999909723139    3.45197727502563
H         0.15995962865492   14.41706220741074    3.77647307199440
C         1.10356190551701   12.50076880639773    3.59832952892250
H         0.26752086783069   11.96361366828400    4.02182913961422
C         7.76151652581416   15.46496803548543    3.41969507895306
H         8.34523690357052   16.28560822233734    3.02938191188385
C         2.16875199485405   17.27365296134482    8.03897752246129
H         2.70500849340244   17.50488122745636    8.96043734897057
H         1.10383479718508   17.22116626101029    8.27827428476783
C         3.22656373522563   13.88782648316447    2.46723345984680
H         4.06976019506586   14.40541156605434    2.03384204457615
C         7.96082243865138   17.93616457793439   -1.58104760348393
H         8.38620708392402   17.63772628889455   -2.54213324526106
H         6.90030595286284   18.14382808885963   -1.74105028018139
C         8.10712233293946   16.78501508851107   -0.58888031423588
H         9.16862592500038   16.60032855306291   -0.40754941834579
H         7.65232609745478   17.06543473064487    0.36391741448553
C         8.51048391539479   20.34838472757140   -2.09830935411406
H         8.85002248288867   19.99895614111606   -3.07683297024111
H         7.45444817461572   20.61275998521473   -2.19263902495714
C         2.54891926810208   20.36328560140098    8.61794117484154
H         3.59575915775160   20.52133326229260    8.34776217631492
H         2.52466184635909   19.67613912546891    9.46565107253027
C         2.63471288284418   15.91363736247037    7.52318980435765
H         2.08927106333151   15.67720712956958    6.60694040631111
H         3.69717156809386   15.96514028001705    7.27440795053091
C         5.72040775591712   14.64654320809187    4.38057616157520
H         4.71374398693759   14.79976443199941    4.73981407776230
C         2.11631817743017   22.81384292482706    8.04518839160187
H         1.73398276708973   23.75010618630042    8.44540521087668
H         1.58086605517508   22.59774742597632    7.12444981759781
H         3.16977364659300   22.94767584632669    7.80863684382270
C         6.47229499429291   15.68974135971413    3.88376254979426
H         6.05552759181589   16.68622578056948    3.85551074853658
C         8.79639337842242   22.29743294254332   -0.46796056589517
H         8.90714908891741   21.64008791255448    0.39600601721320
H         7.73237501362819   22.51431701228470   -0.58919670427049
C         2.41599140729867   14.81641828429800    8.56341988209063
H         1.35211062673685   14.74757279850641    8.80293770638237
H         2.94073998276627   15.09590187805438    9.47922014984438
C         2.39832912850976   18.38270760735369    7.01420239804622
H         3.47044107638706   18.49340872029049    6.83521485592398
H         1.93550926764055   18.08460622079415    6.06935314769169
C         2.92665164043100   13.44853578085819    8.11462753051151
H         3.95213317479479   13.53945687020957    7.75219085071225
H         2.92693085582989   12.76265815292344    8.96495556112291
C         2.06771509072479   12.84885653840487    6.99826117016965
H         2.05798812203208   13.51997588399386    6.13578047845663
H         1.04334353045197   12.69552460772252    7.34599394472844
C         1.93726368946667   21.69281524584747    9.06229570091328
H         0.87253057088066   21.54944270661700    9.26060631050645
H         2.40866901641892   21.99394384961026   10.00097793526048

