43
CSD_code = UTISOH | q = 0 | S = 0 | Stoichiometry = C18H19Br2FeN3 | MND = 4
Fe        3.86361434516972   -1.83012313925198    5.57117014865043
Br        2.23455773876265   -1.00648795064203    6.92245404737760
Br        4.71515262309226   -2.55247173597728    3.59965091403255
N         5.89043862612656   -0.87899226171089    7.35228562690753
N         6.15403117944712    0.09156451493867    5.45305887162215
N         4.37884967778710   -3.22529952367401    6.71419625273592
C         5.36979949679701   -0.79508271108842    6.10998134043024
C         7.13228804176293    0.56650985117876    6.29174861187523
H         7.84058669432131    1.30481602062365    5.97903360964572
C         6.96756908603284   -0.04461440163286    7.48525032260792
H         7.51555263220977    0.04938691774227    8.39998662825306
C         5.35503360247322   -1.72587388816020    8.38535390022040
H         4.42176144813589   -1.28407086390733    8.76209856222196
H         6.07198964990720   -1.77749399366489    9.20647986298902
C         5.04128765883507   -3.11456790605263    7.88376883825229
C         5.36661212642744   -4.21797816514462    8.65265122609869
H         5.90463920995750   -4.07860088513308    9.57760227938026
C         4.98655549238678   -5.48685953301099    8.24352101764054
H         5.23160030794149   -6.35581722697852    8.83211750115850
C         4.26843893054420   -5.59722875806563    7.06016787590960
H         3.92908469326560   -6.55394736434812    6.69798496292218
C         3.99499142516316   -4.45767958837994    6.33885886025702
H         3.43977274619654   -4.52088535649137    5.40968669381530
C         6.08167444650752    0.46289132219808    4.08481395630470
C         7.17559058181264    0.20500424568155    3.25637382586894
C         7.11742838046873    0.61852236653352    1.93366254678380
H         7.95880308920197    0.41342499482808    1.28798494637965
C         6.00416718023016    1.26300517320682    1.41926065375611
C         4.91754339690966    1.47566185812478    2.25580263572612
H         4.03086900898004    1.95092315358046    1.86167141566671
C         4.93415819852960    1.08104569008143    3.58364465044629
C         3.71717189423407    1.26005856253402    4.43424270616089
H         3.96673668124050    1.52450055439779    5.46018674686678
H         3.15013864500489    0.31729705153916    4.45213957089027
H         3.06299339960037    2.02339157390650    4.02175961767878
C         8.37803721436107   -0.54479976919544    3.74691239715501
H         8.09311945691720   -1.30559630899876    4.47043169528998
H         9.09980487958667    0.12523158210359    4.21470529145099
H         8.86926597805787   -1.03535577252994    2.91073322120071
C         5.95495132674541    1.71158973396757   -0.00849082233296
H         6.81808540526353    1.34964804807870   -0.56075435265872
H         5.94081940522735    2.80029850686099   -0.06063096511325
H         5.05113399818859    1.34315538147547   -0.49025769259978

