56
CSD_code = UTITAU | q = 0 | S = 0 | Stoichiometry = C25H26BrFeN3 | MND = 4
Fe        1.61213110844043    2.13955857468252    9.72958690452516
Br        2.66644163947913    1.10170451797857    8.04857572887182
N         0.48585065212737    3.39176486391479    8.98127848918420
N        -1.15068247497081    1.29651671556995   10.03148990334685
N         0.15475460171934   -0.39482483099056   10.22746866878156
C         1.66727742439950    3.10618775631825   11.47836934057705
H         2.16692956050079    2.36921551042347   12.11664760916917
H         2.39013940653787    3.86855591393834   11.14723898802159
C         0.52153822982642    3.71113700005921   12.12447345266126
C        -0.24011254293034    3.01429986046658   13.07195578469644
H         0.07772046955900    2.02872986544329   13.38123208960702
C        -1.38657041566911    3.56100685111104   13.61157015358332
H        -1.95602951488472    3.00270625028121   14.34175934745394
C        -1.80979986532580    4.82429807545341   13.22562009688155
H        -2.70722900153168    5.25129367359447   13.64839275244348
C        -1.06074021699820    5.53899468414406   12.30288213832530
H        -1.37561116431988    6.52954093619260   12.00556373724348
C         0.08752050218494    4.99503425594117   11.76594667829776
H         0.66501934282378    5.56357410084286   11.04956933284435
C         0.15679784468612    0.95177707163820   10.04563762503476
C        -1.12794841103697   -0.86526588083376   10.34789728673535
H        -1.34103026151540   -1.90107610770223   10.51719425200833
C        -1.94949618632697    0.19901095320639   10.22537440905281
H        -3.01767615908725    0.26276696696480   10.26018146415578
C        -1.66990064199692    2.63085822125389    9.91040277262465
H        -1.72520691573993    3.08385004371734   10.91047271128413
H        -2.68687774556404    2.56808613302643    9.51250743667094
C        -0.85368809232563    3.54970050238807    9.03742053124205
C        -1.50116652227485    4.59030213554356    8.39172512645251
H        -2.57504718461533    4.66853490714115    8.46693545721029
C        -0.78012979637839    5.53007499907963    7.67372646844912
H        -1.27240142483411    6.34510793852863    7.16943207126804
C         0.60422645757658    5.38680685869309    7.63563895710155
H         1.22403949706608    6.09015960549957    7.10282286699309
C         1.17628768580119    4.32327066826741    8.28619078195149
H         2.25554743660727    4.18524733415572    8.26533308027674
C         1.28666048191127   -1.25519813137270   10.23129127900514
C         2.08921654329517   -1.33980299887629   11.36777672236618
C         3.18863812116309   -2.18560572540852   11.34570337756688
H         3.81915061091060   -2.24776345258212   12.22135857238304
C         3.49165254099761   -2.94720583897862   10.22774082535161
C         2.65553382351650   -2.86974045407340    9.12286576155659
H         2.87851611875697   -3.46319923186446    8.24857084807861
C         1.54808095926424   -2.03744727331772    9.10330362423195
C         0.67916553968000   -1.95707621250512    7.88749634673032
H        -0.37484836210705   -2.05835512337047    8.14027524830569
H         0.94757106596461   -2.73536523721000    7.17899862782444
H         0.81973613406727   -0.99189376231573    7.40312018937154
C         1.73997026221369   -0.57398887669045   12.60753484992265
H         0.98656672747987   -1.11919933210081   13.17900423410573
H         1.33024419016241    0.40014900627352   12.35215692034382
H         2.61493055455519   -0.44321576323690   13.23959010269794
C         4.67853776332255   -3.86132741395987   10.21773192833287
H         5.41741160536937   -3.54807604372022   10.95102087064508
H         5.14109469608417   -3.87696454541714    9.23377727220183
H         4.36809330238968   -4.87833051521173   10.46016790396101

