49
CSD_code = UTITOI | q = 0 | S = 0 | Stoichiometry = C22H19FeN3O4 | MND = 5
Fe        1.77544474796187    1.71381597974783    9.82660545602955
O         2.81288669994625    4.22949659210978   10.82705169346870
O        -0.40934182136450    1.94908256106956   11.78002135298328
O         1.72570952112683    2.82486829709363    7.10702072462459
O         4.31613226182012    0.60579165114425   10.82385260680830
N        -0.29790274903520   -0.04889960061559    8.36825036345749
N         1.43262974417008   -1.19945723192839    8.88448058863888
N        -3.70416034695001    0.89626305692780    8.31241309815352
C         2.40652477994233    3.22879545481608   10.43163971644806
C         0.43484522159164    1.83805412020014   10.99919083435728
C         1.74252696980292    2.39517039683398    8.17857526393281
C         3.29192126043193    0.90342205797715   10.38815977413960
C         0.90254294134874    0.04144629475683    8.99462801423377
C         0.58788083648623   -2.03996398160527    8.20892282161952
H         0.83611638401415   -3.06502496350547    8.02361470620255
C        -0.50364599101188   -1.31390682565834    7.88475445995316
H        -1.39754099496419   -1.58227987446829    7.36042376516455
C        -1.30373312881783    0.97465495662725    8.23840443860433
H        -1.52950234209007    1.15162878296239    7.18255579933159
H        -0.90703781344146    1.90238250181203    8.66929146702325
C        -2.58060113635561    0.59352309573779    8.94627296710559
C        -2.56546376042348   -0.03081545848309   10.18925850188031
H        -1.63047100997308   -0.26599559230090   10.67441173498658
C        -3.77518029248240   -0.33164773419493   10.79094179725746
H        -3.79947503914013   -0.81132390751386   11.75846888293369
C        -4.95058354822341   -0.00176567416149   10.13395696215204
H        -5.91324117594478   -0.21544350872726   10.57075683458143
C        -4.85552015335672    0.61147841389192    8.89459471759391
H        -5.73860389662346    0.88676885410759    8.33329476763696
C         2.68500433886012   -1.64158000145911    9.39436314837650
C         2.74585064348534   -2.14673406579105   10.69379032580631
C         3.96581174658373   -2.60392197409325   11.16147308425197
H         4.03551527797690   -2.98552417662980   12.16982136314873
C         5.10612260913523   -2.56809436841954   10.36790137780591
C         5.01004223595964   -2.07113109873113    9.07666292560550
H         5.89165926689720   -2.03422859017717    8.45341051026934
C         3.80734184275591   -1.60345753541755    8.56920401294709
C         3.70564796885762   -1.04109001091236    7.18519397010163
H         2.99661784099421   -1.61065660241388    6.58400553465579
H         4.67305849839634   -1.05989956239851    6.69154628406358
H         3.35543083318399   -0.00871043180635    7.22859000424644
C         1.52142166833258   -2.15257262964214   11.55664795750962
H         1.18191023409543   -1.12802241090453   11.71936275319456
H         1.73409859496412   -2.60493630724660   12.52113809380137
H         0.71112304900820   -2.70635067745213   11.08173118054788
C         6.41264514897614   -3.05122690270009   10.91591559634277
H         7.19388083252956   -3.00715002036730   10.16200554594195
H         6.32211418345330   -4.07755014192075   11.26888365035943
H         6.71164701710718   -2.43368120614160   11.76163856971607

