69
CSD_code = UTIVIE | q = 1 | S = 0 | Stoichiometry = C28H32CuN8(1+) | MND = 4
Cu        1.43241213515763    9.08185279498449   13.82554635805327
N         0.47179113824741   10.66174242496418   12.87352556046859
C         0.44661492234035   11.83786069456348   13.43411322273833
N         1.57249370784555   12.45617440379924   13.85871956279327
C         2.90337114665548   12.10386015912332   13.45304389140277
H         3.59550886549575   12.33123481652889   14.26426395240255
H         3.21081758971263   12.65635024926087   12.55924242128201
H         2.93446512103154   11.03469184207217   13.24426573439243
N        -0.63757909927601   12.59095128392825   13.75689130719915
C         1.28728513278472   13.78003958298414   14.37049894596788
H         1.65452913365163   14.54619596040615   13.67678061275290
H         1.77739175578314   13.92870716764954   15.33671726638418
N         0.00495238915502    8.00394049550094   12.97735663773638
C        -0.24216643938088   13.78977414094886   14.47395168100108
H        -0.58040101645945   13.73779103034241   15.51582035409642
H        -0.68961126821612   14.67413039397148   14.01244254825121
N         3.30992281392703    8.26240170025927   13.37314082335715
C        -1.98351037470031   12.09688845247232   13.88915148570911
H        -2.61829353867011   12.46332049907423   13.07845392468374
H        -2.40223299828284   12.43240279762973   14.83936052204938
H        -1.98738981099362   11.00821603481321   13.86923026285451
C        -0.50480793284100   10.14471855342687   12.05692250199671
N         3.84492750549751    5.98754347804653   12.84917027006162
C        -1.20633591361501   10.89259136974905   11.12512360092252
H        -1.04420937020572   11.95876165656298   11.07524440141675
N         2.81635801660176    7.24789140029089   11.34258032726178
N         2.27205122434367    9.46819530688719   15.56129576683223
C        -2.09444101344032   10.28569163976992   10.23575288501309
H        -2.62527232574382   10.90345341999095    9.52739232134748
C        -2.29164297309879    8.92926614259596   10.24242642698895
H        -2.97654351983017    8.46341025446178    9.55143363087123
C        -1.58618720874050    8.12339852749244   11.15527627613124
C        -0.69053111074863    8.73107431470545   12.07286147949793
C        -1.71174809290901    6.71873604282523   11.20747797565506
H        -2.38243513132533    6.22357926513761   10.52089848260622
C        -0.98384782067857    6.00862152280384   12.12576895769696
H        -1.06158504107455    4.93496282478860   12.19248030511713
C        -0.13476594884258    6.69827300242230   12.99953192867806
H         0.43711287796560    6.16469236540748   13.74663651887270
C         3.35899303325148    7.22926858317257   12.58266374756563
C         4.07140053088134    5.45150632754651   14.16631831540681
H         3.61256527475002    4.46426484098603   14.24102968945218
H         3.62825754172353    6.10269581608280   14.91842282727310
H         5.14032224578526    5.35692616300794   14.37350736639983
C         3.58772658159833    5.08279597599078   11.74346616294054
H         2.83739493847791    4.33596876237239   12.03070290647880
H         4.50348843514755    4.55761208669938   11.45966880795378
C         3.07133008559056    6.00973487634576   10.63762113539681
H         3.82065736872383    6.16342742500877    9.85114696097755
H         2.15358598620833    5.64138445423747   10.17083156332853
C         2.48254966504949    8.44141526193485   10.61848177163953
H         1.63636891910550    8.23623565386106    9.96212493628437
H         3.32446114717459    8.79266606005912   10.01288979344420
H         2.20336913179502    9.21518247995946   11.33198516025544
C         4.14225384153101    8.49545775576528   14.44051353891791
C         5.50002395065714    8.21863293089960   14.43137488581474
H         5.92982981381866    7.72305177969065   13.57385422156389
C         6.31873970546207    8.59278192970528   15.49766103712285
H         7.37110312398826    8.35647869472233   15.45420048130022
C         5.81104326552529    9.25646563107989   16.58426090228406
H         6.44678523622350    9.54558185781634   17.40629885527389
C         4.44176209775159    9.57688710429339   16.63281924943968
C         3.59790642873337    9.19396614063002   15.55801601115880
C         3.84771639596240   10.27448952832119   17.70616006734359
H         4.46255455170186   10.58331691146955   18.53850657006317
C         2.50524727831368   10.54654047615755   17.67525340016875
H         2.02187341377593   11.07432602339594   18.48192284285362
C         1.75049817521811   10.11913277797590   16.57652074732451
H         0.68642430895733   10.30711767816541   16.53338491202566

