73
CSD_code = UTIWUR | q = 1 | S = 0 | Stoichiometry = C28H36CuN8(1+) | MND = 4
Cu        7.02137597132319    6.58319203991506    3.36112119936573
N         5.09151927127765    7.31974690820234    3.18014807536159
N         4.48040922873770    9.48164242307532    2.45161022819723
N         4.96789444586894    7.78561985972926    0.93667881457287
N         6.57616138796674    6.53713241824982    5.29845729467710
N         7.94798168257847    4.90206309934298    2.59255561138896
N         9.28862753382959    3.33725149227252    3.74627175560786
N         6.96714912049576    3.22145012170647    3.81011244268902
N         8.32629849562131    7.54858847956450    2.19982626043363
C         4.83507412460719    8.18552329368048    2.22978894570627
C         3.58363314974858   10.20542820405558    1.57764975198956
H         3.25257092185182    9.56645614264087    0.76448229245264
H         4.06244010292520   11.09783066214491    1.16717233582424
H         2.70717969496559   10.52446740391621    2.14895642280077
C         4.75109379979859   10.13441037216228    3.70934324163025
H         3.87852778475350   10.13730336091828    4.37115770186592
H         5.03678884872326   11.16878100146362    3.50744526199896
H         5.57229440106618    9.63433234188165    4.21924017365084
C         5.59370942256359    8.62526651062926   -0.06395262429777
H         4.96042674991261    8.70287512755673   -0.95000330984934
H         6.55120121109489    8.18829164066348   -0.36195069322759
H         5.78219573602217    9.61890823845164    0.33046538666421
C         5.08162309710244    6.36880739195388    0.67569010465553
H         6.08403416201224    5.99371679492552    0.91081245935437
H         4.86515701413808    6.19336823088035   -0.37677572292047
H         4.35947767459662    5.83235810007502    1.28689503171178
C         4.49929013554318    7.30943342515211    4.41907920824663
C         3.16419733042968    7.60915677863034    4.63545893208123
H         2.55423469606050    7.92803317743413    3.80279169397120
C         2.59156546641224    7.47752279622059    5.90203465359293
H         1.54807959927530    7.72289749536729    6.02961972721934
C         3.32863288448334    7.04473358808855    6.97327770129412
H         2.88472332329996    6.94919127382645    7.95166789018426
C         4.68555213192224    6.71258074521285    6.80215377585080
C         5.27621292642071    6.84111090534777    5.51838545081793
C         5.50970186338443    6.25042374054539    7.85018921878587
H         5.09166959047828    6.13894430259433    8.83956238703604
C         6.82332564585960    5.95338141588918    7.59680068214041
H         7.47942372390558    5.60316557490059    8.37748682928102
C         7.31701049806219    6.11251559367288    6.29632331705066
H         8.35026241675748    5.88797394386768    6.06857563127984
C         8.08677554880340    3.84166228662404    3.35127121990488
C        10.48718109545776    4.14021953613399    3.73221498844988
H        11.09153350536804    3.96793310334630    2.83532425885923
H        11.08558136203270    3.88266754300316    4.60842421778899
H        10.22825392046522    5.19616053261147    3.78051901959758
C         9.51307886772008    1.92192470290405    3.94250905685791
H         8.60751112942363    1.36311282271590    3.72603979002082
H         9.83679310726475    1.70838894794232    4.96410278145846
H        10.30056971712309    1.58670023200472    3.26139924077205
C         6.86094441700209    2.74894416054313    5.17529925048371
H         6.52340329288474    1.71086202954956    5.19660871510467
H         6.13440038742429    3.35965871423844    5.71877871447117
H         7.81676194357719    2.82515431009013    5.68409919264629
C         5.70349098040172    3.56870593042190    3.20120694592794
H         5.82148978983715    3.59745511257677    2.12033444263504
H         5.34736031200433    4.54940852164186    3.53790292520643
H         4.97255925470276    2.80604187489475    3.46373119512021
C         8.83587904809933    5.29407207382616    1.61993646572198
C         9.49645048577772    4.41105301894209    0.78178843364010
H         9.36421996538705    3.34860792164625    0.92587456570459
C        10.30381376264648    4.87265704941587   -0.25986189483520
H        10.80272408816366    4.15219452855272   -0.89021403459615
C        10.46859530836406    6.21348181976716   -0.49028369440541
H        11.09724205575857    6.56694343413515   -1.29236532578332
C         9.80791880853058    7.15122886440527    0.32530328333947
C         8.98310647604684    6.69192474402689    1.38451008796213
C         9.91830577006291    8.54714766825973    0.15033603283131
H        10.53639284576909    8.93130507012673   -0.64744190594549
C         9.24427172987092    9.38978592764485    0.99511664629953
H         9.31437921015499   10.46076061839193    0.89157319305913
C         8.45384624448966    8.84205515124132    2.01282889037067
H         7.91443830324511    9.48410533069276    2.69592776089693

