73
CSD_code = UTIWOL | q = 1 | S = 0 | Stoichiometry = C28H36CuN8(1+) | MND = 4
Cu        5.43531659537035    6.57869745316744    7.96909064443796
N         7.41738159974758    7.82392771842989   10.42877244960019
N         5.92343941272169    6.52755212902775    6.04060190208159
N         7.93914349353673    9.50181636523611    8.90507904438074
N         4.52010967340689    4.87807298987080    8.70758700621893
C         4.42699116056937    3.81898729642669    7.94016077841629
N         4.08403245488280    7.51590458890969    9.09838566932333
C         7.58274499065250    8.20750679519156    9.13470175453965
C         7.85220576828562    6.68719203052575    4.58422262886779
C         9.21333965763474    7.01698195931362    4.44486879520297
H         9.68236683378612    6.91113782156778    3.47933560205192
N         3.24902850825006    3.29723871108184    7.49888359320126
N         7.35403464060804    7.32893980024961    8.18890188967141
N         5.57320260040105    3.21974297104037    7.52055599332794
C         2.03696327592827    4.07954034016309    7.47764145271203
H         2.27910652001214    5.14008430113984    7.44517779844098
H         1.40594357624168    3.89060267505556    8.35254486251917
H         1.47290163083626    3.81810822597844    6.58009143859047
C         2.92187965208002    4.35212512095486   10.46425730069379
H         3.07617004991668    3.29276395795745   10.31931018333017
C         7.22889853931592    6.82832668316607    5.85111524800807
C         5.73432334042417    5.92355811715621    3.74199138175881
H         5.09781514521829    5.56782890012961    2.94770270439688
C         3.41620965653834    6.64428765722883    9.88863733795810
C         7.69621164634843   10.13774454688847    7.63309307744702
H         6.88782942756028    9.62927307876703    7.11113506954730
H         8.58377332525047   10.13431908714859    6.99153356281947
H         7.40366182765840   11.17387082038682    7.81506744988252
C         5.20772744315043    6.09497136094812    5.02794351224543
H         4.16855892600656    5.87412960048163    5.23101828537372
C         2.41039106193301    8.47749532038809   11.09993180412616
H         1.76076230753611    8.84736879591554   11.87918688279280
C         6.76697127956890    8.67580151552676   11.40297600022764
H         6.58674795170044    9.66381958638788   10.99101220388486
H         7.37889604144956    8.76619250338607   12.30272921761350
H         5.80320607714946    8.24135983008085   11.68386328267442
C         2.55049873258284    7.08449739618598   10.92304759403992
C         8.81333193324860   10.23898841019548    9.79065420314487
H         9.12733482046875    9.61090453988891   10.61895460338206
H         8.32266910498923   11.13480049686586   10.17912331257481
H         9.70183444953624   10.55381859927692    9.23587274911968
C         7.05455389868444    6.21624731921323    3.51971137706335
H         7.49756669073882    6.09527969112829    2.54238835687422
C         9.31755171076434    7.60567800380383    6.78020618889190
H         9.90573806447597    7.93395109144746    7.62480243955109
C         6.80723737683638    3.58397725613532    8.17834976431681
H         6.64461368790832    3.61827660894715    9.25318195361538
H         7.16703206838632    4.56588105187308    7.84971470825707
H         7.55603268452757    2.82725039868272    7.95086910411402
C         3.09620701901790    9.33549266215955   10.28043487693249
H         3.00420805388791   10.40460162945352   10.38602512441880
C         7.97755498460197    7.30712922982986    6.96540171410336
C         3.59440267977364    5.25020879210333    9.65194158220781
C         5.73971002464540    2.75737913487450    6.15797431516111
H         4.80296507681578    2.82004154999899    5.61313361315095
H         6.09633105156951    1.72553477322887    6.14416981039020
H         6.47582465024329    3.38383540875050    5.64604979822907
C         3.92831750325991    8.80618182458614    9.28648116747677
H         4.47858440196437    9.46044348007935    8.62391888508940
C         7.30039065383284    6.41049884017864   10.70594604764491
H         8.04025293884279    5.86786035082281   10.12202512550460
H         6.30579719554100    6.02898764643934   10.44884636508269
H         7.48856256069136    6.24999365812853   11.76619931414285
C         1.88046526348489    6.13182985573107   11.71328365856394
H         1.22136707120495    6.47071917182677   12.49699387406567
C         9.92256915365210    7.46114240576647    5.53016424446746
H        10.96897375877040    7.70551592611038    5.42689525565298
C         2.07453380589744    4.79506310776037   11.48192016755871
H         1.56816168690031    4.06331165466843   12.09301914838627
C         3.05615234534989    1.88009301759243    7.28322191290246
H         3.96209354418114    1.33458153479442    7.52994598783859
H         2.77539366473202    1.66979487134268    6.24831634344079
H         2.24899959608653    1.52623795517277    7.93100750590222

