72
CSD_code = UTIXAY | q = 0 | S = 0 | Stoichiometry = C33H29I2N3O2P2W | MND = 7
W         4.39019905381302   10.51970502132304    0.56579068648957
I         3.26508679685597    9.02692224119650   -1.56775136015406
I         2.82270080505342    8.87385959875536    2.27206679160699
P         4.65490059138648   12.02884473885207   -1.29168110161898
P         4.09302347530105   11.91783985793856    2.50744462413266
N         2.58517638200142   12.07820190128637    0.36469094120450
N         3.05710506071673   12.33818359827003   -1.88138658316210
N         2.38446192601816   12.14265375864264    2.65974933900788
O         7.37580670567969   11.37432765147248    1.00077129270257
O         6.67024547717252    8.36556370990206    0.79299568383121
C         2.12163735550723   12.34198429701649   -0.87664147941567
C         0.77540812317062   12.63919038512528   -1.09470533699871
C        -0.07262237799523   12.69473664064561   -0.00356851317757
C         0.41811730539916   12.52290775219192    1.27774964070963
C         1.77481290502774   12.23612590825662    1.43432579702414
C         5.22199617123036   13.74496142384647   -1.00122676511921
C         4.36405317865839   14.83553806686210   -0.92536160844757
C         4.87639000587022   16.10734945243452   -0.74042835526253
C         6.24136401704274   16.29738728104166   -0.61678688710176
C         7.10001881067619   15.21065744773927   -0.66895561612717
C         6.59441531160626   13.94046236070964   -0.86055006800996
C         5.66915530119119   11.66214118581880   -2.74986974650997
C         5.80830870405254   12.58629176694468   -3.78486082155840
C         6.64256637068564   12.30278981841266   -4.84883398086574
C         7.35490647847130   11.11308637854229   -4.87705923209428
C         7.24448990287678   10.20946516962956   -3.83365307153637
C         6.40671711799128   10.48437254477527   -2.76727233430212
C         4.62432271708070   13.67188224853530    2.47834887676856
C         3.74716812203727   14.74258625571509    2.35324732261205
C         4.22538321082479   16.03974797161305    2.40911804441685
C         5.57790292839656   16.27699839531758    2.57841158636858
C         6.45982419454099   15.21296482365304    2.68270752681474
C         5.98659655535577   13.91689350866892    2.63437082629595
C         4.69521378280198   11.49714341294026    4.16478084350110
C         4.48736678982436   12.34841532112869    5.24896761697523
C         5.02076623878336   12.02823924248229    6.48246538787238
C         5.77763482755372   10.87624018320801    6.63572666574666
C         6.01344468999025   10.04710995996843    5.55191871990668
C         5.47748388673062   10.35830647399473    4.31498525448130
C         2.62305120066635   12.23211629236336   -3.26038772589185
C         1.58837415452222   11.91250724008304    3.84831516638594
C         6.24481414432181   11.09710167966127    0.84189074300118
C         5.78755138146078    9.11716567429062    0.70046971247336
H         0.40799372130986   12.82558131715292   -2.08772913411926
H        -1.12045364567696   12.90487835640397   -0.15125332823657
H        -0.22551936038261   12.61642637013018    2.13401196215669
H         3.29556490290275   14.69786084182373   -1.02352623850407
H         4.20549173689159   16.95304649787502   -0.69734920289566
H         6.63729162683222   17.29249365399950   -0.48014839737580
H         8.16524932955328   15.35532891103217   -0.56843282635932
H         7.26197962553526   13.09111598404460   -0.91633036116732
H         5.26845175287482   13.52369052141436   -3.74637494546314
H         6.74271709983338   13.01369956968780   -5.65570935174920
H         8.00511213677635   10.89660511781586   -5.71123407346409
H         7.80982565803898    9.29041574106704   -3.84731844718352
H         6.32666445352634    9.78402278633925   -1.94294594929183
H         2.68737457590565   14.57011643786076    2.22366685361522
H         3.53591991372582   16.86741410248753    2.32584378323452
H         5.94579861107351   17.29073000228134    2.62999717176883
H         7.51631742144374   15.39467128239134    2.81059525279238
H         6.66960199059852   13.08393418523786    2.73156087880159
H         3.91508778382215   13.25772128476629    5.11835547824135
H         4.85119939092342   12.68137308611849    7.32573144227177
H         6.19167619898652   10.63100830207884    7.60211122651734
H         6.61404933617197    9.15808050924572    5.66730948035300
H         5.66683904014569    9.71674075271350    3.46100545446243
H         3.45668760539789   11.89008282698639   -3.87032765602178
H         1.82003398417527   11.49782490925774   -3.35161233021720
H         2.28078399573559   13.19968688744306   -3.63734534555033
H         2.22864321708929   11.51261246730513    4.63233896614574
H         1.13342303922535   12.84245350386142    4.20055934552158
H         0.80765507721321   11.17611514992399    3.64762178874007

