68
CSD_code = UTIXUS | q = 0 | S = 0 | Stoichiometry = C21H37I2N3O2P2W | MND = 7
W        13.94921294175170   11.73943503431307    8.01579003459100
I        13.76044272253356   14.42600490924493    8.96485624207928
I        16.75657735706267   12.18796055624055    8.34301647077114
N        14.07340129191104   12.56737949678573    5.87787936525138
P        11.70454485362933   12.43334354718495    7.27600886947326
P        14.97265411122504   10.07108314756120    6.51983757687578
N        12.08248317332273   13.72401910130654    6.17526000915296
N        15.78112834800694   11.08548527426625    5.36285235420089
O        12.42375445266035    9.27078144341240    9.22709663827118
O        14.03480400715547   10.92393113946850   11.06076884935877
C        13.32139076356004   13.65247684807720    5.58363391496312
C        13.78004152780062   14.62107641491435    4.68878450789662
C        14.99831268941849   14.42151908327012    4.06729196157585
C        15.70651528072204   13.25224206511816    4.26932858763653
C        15.19989653414026   12.31585412171502    5.17219757584563
C        10.76360304941229   11.32556660217486    6.07547312603320
C         9.78859079254598   11.99815267512317    5.11193852604608
C        10.12215273698528   10.13526226832319    6.78081005078418
C        10.47865793954561   13.13912338296396    8.50414672362548
C         9.00476616209495   13.23121655801993    8.11338254849230
C        10.61104677371910   12.29756113819064    9.77575473934431
C        13.85644929371345    9.15672036262491    5.30707851104786
C        14.47736322143287    8.65979265237416    4.00347205129249
C        13.05252672214874    8.06247330799176    5.99980060230933
C        16.25957586799761    8.87093806388686    7.15523895503441
C        16.60610479823850    7.65097780346822    6.30479297234955
C        15.77582689288760    8.41235339875190    8.53277036226325
C        11.35384356096120   14.97636319842945    6.08708689406697
C        17.12090321049995   10.86973869911881    4.84861378042093
C        13.01080902896570   10.20612794527551    8.79108746457785
C        13.98354084343775   11.20342363311171    9.92432268811619
H        13.21331448207632   15.51230979228638    4.49385459099658
H        15.38555187062397   15.17250532722255    3.39684767756123
H        16.63079553878562   13.08058443105847    3.74975906559022
H        11.59624985167094   10.94554424030595    5.46277977195319
H        10.22377717186576   12.88734520177619    4.66179223620715
H         9.54979537529964   11.30057111071689    4.30935343989687
H         8.85712482285789   12.26741551458510    5.59884068857927
H        10.78199105088540    9.72451662410826    7.54058513185730
H         9.18726590625464   10.41690571926194    7.25785477741617
H         9.90105334264951    9.34893044469869    6.06071646132527
H        10.84452652683711   14.14881764782320    8.72889526343663
H         8.83919881626513   13.76744424948191    7.18252902668318
H         8.55336384623102   12.24603314278581    8.03613615329867
H         8.47893510935132   13.77076957578971    8.90060502385570
H        11.62420236659475   12.33928825430877   10.17788245025175
H         9.93817897224530   12.67925175742267   10.54140114133928
H        10.35645986297574   11.25494752512724    9.58930114595544
H        13.16395199518993    9.96877902648673    5.03105999853135
H        15.14730303824186    9.40060099201559    3.57331279342119
H        15.01910599666782    7.72994083344361    4.14109688348804
H        13.68128915608726    8.47196927578282    3.28317731380276
H        12.68825496457598    8.39788734181166    6.96764553367000
H        12.19512487201720    7.78182576047188    5.39000574163911
H        13.65493070276550    7.17072742540193    6.15313722439687
H        17.16859955987584    9.46774357002307    7.30051970880366
H        16.90304666442500    7.90840748860122    5.29135422204169
H        17.44443400005233    7.13636564610195    6.77353598625302
H        15.77616713529030    6.95084023848564    6.26216655811809
H        15.66683952115189    9.25543251292095    9.21658990454852
H        14.81862012353488    7.89675313736457    8.46561071553595
H        16.50072352166523    7.72733376228315    8.96857040306930
H        10.43670854204554   14.89979265780562    6.65938240830292
H        11.94809088604145   15.79817376355004    6.49616368962189
H        11.09351311077999   15.19988441933959    5.04950394858081
H        17.47383057065409    9.89341975714222    5.16085997075857
H        17.12626901807375   10.90520653823562    3.75617220514046
H        17.80979075795864   11.62415142132831    5.23822779033707

