65
CSD_code = UTODAK | q = 0 | S = 0 | Stoichiometry = C19H38MnNO4P2 | MND = 6
Mn        1.15234546082013    2.60542544623995    2.57880738454498
P         0.24455885818956    1.19040358756888    4.12931101349212
P         2.05117899723005    3.30154060240179    0.59454217552989
N         2.15773468378909    0.76101686490700    1.99275296841475
H         1.40732014280963    0.36762314445696    1.38079329133659
O        -0.43238328765485    1.97497663141037    1.38690947451180
O        -0.00795715916540   -0.00313658376754    0.44532911119372
O         3.30404800575913    3.60393013914494    4.27742466224476
O        -0.11132790067923    5.10408315687384    3.42550810738483
C         2.93615022743860    1.80047529638823   -0.05181486927404
H         2.22728781896148    1.24677915138334   -0.67641097959467
H         3.80226848683979    2.06928299317503   -0.65973871993316
C         3.32952406292787    0.93025247017409    1.13903579814552
H         3.69737943074475   -0.04605449119753    0.78263434508827
H         4.12945636049391    1.40384104424252    1.72100855273542
C         1.01161420047055   -0.45800314629537    3.74333751432566
H         1.11770758069951   -1.07675701622096    4.63648008462288
H         0.34821278205873   -0.96986327569481    3.03832452767647
C         2.35611082640399   -0.20985251549956    3.06460830095697
H         3.08569611273137    0.19076143670472    3.77890059502546
H         2.75310028821242   -1.15745775369904    2.66473564384729
C         3.35639615216989    4.63337379487389    0.49730670815228
H         3.53028863034677    4.85848385119689   -0.56062425498916
C         0.55384361179631    1.38278895382986    5.96072150710346
H        -0.08683459562443    0.66727954883133    6.48767828730871
C         0.91453130052347    3.65120085890624   -0.84769410026875
H         0.42491530806209    2.68079757093106   -1.00844921854105
C        -1.56490203174884    0.73874397853990    4.00321042745849
H        -1.62514424203477    0.26417090481693    3.01407772981817
C         4.67629174304270    4.19704726546998    1.12618455678119
H         4.52679316852085    3.90302655774265    2.16158869683962
H         5.37531204994957    5.03203945238980    1.11292702985550
H         5.13461126584365    3.37275842922343    0.58449046230263
C        -0.16881086004417    4.65676960285243   -0.46899028450438
H        -0.59399660362032    4.39881488315535    0.50067467088932
H        -0.96523186088257    4.64628353647385   -1.21181576722384
H         0.22935124289324    5.66746823026801   -0.41662418022546
C         1.61877745325354    4.04879643646929   -2.14159858663628
H         1.98383950668721    5.07224709423915   -2.09083945806461
H         0.91027413421589    3.99176860141998   -2.96688229055423
H         2.45211495809186    3.38539766482837   -2.36681652679125
C         0.18110812410579    2.80809468812353    6.35891071740175
H         0.79643439972498    3.51659277413366    5.80320736557846
H         0.34601297841937    2.96196822713029    7.42403986600074
H        -0.86089730755751    3.02350881813309    6.13762913175123
C        -2.05197163696706   -0.26621404450382    5.04300235607571
H        -1.37314462708755   -1.11241965521043    5.13433631343573
H        -3.02715354787881   -0.64742517539361    4.74300146975542
H        -2.16718082525647    0.20265368167424    6.01777191637060
C         2.82725848233193    5.87224909504212    1.21423443963079
H         1.91326737444195    6.23828328607351    0.75412534906818
H         3.56713808465665    6.67064959798430    1.19204825670287
H         2.60667726711509    5.62783093629631    2.25403769160251
C         2.00662640764958    1.10540872513279    6.33548063215131
H         2.28511219984757    0.06952304320733    6.15570848935104
H         2.15029899667907    1.30838600658719    7.39573833849893
H         2.67525103920577    1.75532084033818    5.77743431401977
C        -2.44724088259161    1.98317395326728    3.97226451220698
H        -2.53688266591494    2.42965564876642    4.95989828002342
H        -3.44740128591533    1.72428416131548    3.62758201321130
H        -2.02536394064973    2.72253371699865    3.29184589032084
C         0.34923684407770    4.10400370549900    3.06354799192756
C         2.47088426733394    3.16579514897024    3.58878643906873
C        -0.70118519504371    0.99123829354957    0.67095689372219
H        -1.71183086124978    1.04328012772321    0.17940694113617

