108
CSD_code = UTOLOG | q = 0 | S = 0 | Stoichiometry = C52H51CoN2O2 | MND = 5
Co        7.74313398731775    4.89175837320292    6.42797006271952
O         8.15966391358770    4.65359189450565    9.29236825723080
O         7.54095365414336    6.99826154365689    4.43067086479320
N         4.81237553227374    4.81515949310818    6.84126746282063
N         8.00998617757053    2.13846616470243    5.14891833468585
C         5.97242260072696    4.87060038071222    6.66872458361153
C         8.00706844782620    4.71771314680837    8.15528600639258
C         7.88960030868606    3.21134500554276    5.60320877966107
C         7.60916050183659    6.16054620760160    5.21291981591039
C         3.47039437228080    4.75120707886458    6.65582985550403
C         2.61863817390305    4.57534683631498    7.75000230822058
C         1.25162437700543    4.51198285270733    7.51387187142914
H         0.58095058075062    4.39564391171827    8.35246234668298
C         0.74884040071742    4.61347676157769    6.22866727059505
H        -0.31704233565210    4.56096343147945    6.06316265803406
C         1.60497271295708    4.79033199006046    5.15344372638352
H         1.21285338973077    4.86969519742443    4.14985208676172
C         2.97405223536827    4.86744380423822    5.34835872896059
C         3.92498863799339    5.10184826525724    4.23812825723201
C         4.10156377174219    6.39974434230283    3.75509767964803
C         3.31677504606340    7.53827242459784    4.33735253306248
H         2.24676075912600    7.38404246753536    4.20296957549163
H         3.59534911621704    8.47610004798472    3.86369752103477
H         3.50664170730828    7.62204349933734    5.40776550039926
C         5.03490893218176    6.62305456682908    2.75674098009888
H         5.18041876308271    7.62754203378092    2.38513972702728
C         5.81068235077872    5.59142548706859    2.24688315126407
C         6.83512078323864    5.86461709873174    1.18998026638468
H         7.59458575196558    5.08745114791414    1.18713083790730
H         7.31146520248977    6.82744021383426    1.36087964258957
H         6.36433018948105    5.89088728164871    0.20645021634494
C         5.61988673271162    4.30854406880032    2.73754523140112
H         6.22245097225003    3.49805834488214    2.35176672288727
C         4.68249142966843    4.04872695931682    3.72543892755176
C         4.49077909723575    2.65497287370131    4.24672345737334
H         4.86928829911243    2.57640324170992    5.26661282105337
H         5.02869250130441    1.94278460468695    3.62651435846253
H         3.43441275572093    2.38678744250410    4.26044794140031
C         3.16402691606084    4.47318782432563    9.12210454117891
C         3.11171697514531    3.25271841156760    9.79745792220383
C         2.54025700130487    2.03495297237034    9.13104331867904
H         2.81136856256368    1.13491968013647    9.67906934223722
H         2.90049916901393    1.94987063164103    8.10664191551414
H         1.45237935483136    2.09084660313423    9.09559397788590
C         3.59694236744573    3.17533746704161   11.09427604843331
H         3.54497642807264    2.23069250988834   11.61959031001080
C         4.13720280093662    4.28195366281355   11.73153510632046
C         4.65221521337609    4.20039968889410   13.13679712348255
H         4.51639388848914    3.20281067960076   13.54785542982731
H         4.12784640091287    4.91261631994738   13.77302176955303
H         5.71279076759541    4.44756915722817   13.16531972780409
C         4.19139421067239    5.48311809970024   11.03916256096863
H         4.61323822270143    6.35262265557346   11.52327550172578
C         3.71124226972105    5.59767533977040    9.74442846244241
C         3.77531008268654    6.92051626190957    9.03904054624946
H         4.67193564329302    6.97489323718482    8.41966096535569
H         3.81886300282463    7.73367756750097    9.75990212983064
H         2.90890055919213    7.06681495208272    8.39573647861795
C         8.20557851682743    0.81284869607903    4.92650252413608
C         8.41530012524963    0.32684198965707    3.63252502179193
C         8.62267760424149   -1.03835543570512    3.47022582577743
H         8.80016736906104   -1.42214187186859    2.47663696825262
C         8.61838397811518   -1.89371681675136    4.55683546851245
H         8.78819840771866   -2.95001438168895    4.41043839565857
C         8.39815322994642   -1.39999727664508    5.83239424442048
H         8.39446234230678   -2.06413178239384    6.68438657287195
C         8.19036870544245   -0.04551952359955    6.03583885750769
C         7.95826121530344    0.51230632718423    7.38783697578629
C         9.02612748648659    1.03920143037874    8.11517254832878
C        10.40769135095847    1.05894173081324    7.53181108097356
H        10.63564728929580    0.12136407241654    7.02660579701264
H        11.14885237689245    1.23103635343408    8.30819380301997
H        10.49022118340384    1.86477731761307    6.80128197573695
C         8.78610059298210    1.55875386012501    9.37640266803955
H         9.61067453738734    1.96277305461831    9.94652654598493
C         7.50813931734760    1.58830024884974    9.91718004967664
C         7.27954521811861    2.15970333826070   11.28196706617877
H         6.21748146227554    2.27566804858509   11.47751219170347
H         7.75920275326720    3.13246778333396   11.36674550060545
H         7.70840616974782    1.50602646474385   12.04210455418899
H         9.16428668040153    5.16225344206251    6.35991788924588
C         6.45879228858945    1.07398675246091    9.17134472998426
H         5.45730268412136    1.10296126585678    9.57569450720616
C         6.66735907683251    0.52733608331688    7.91469860842458
C         5.52684701292298   -0.04639104325178    7.12578893447527
H         5.44247335956798    0.44220523072128    6.15525372475260
H         4.58877959194366    0.07827445747264    7.66040561852187
H         5.68368646977073   -1.10986031054955    6.94494788222092
C         8.42945379367365    1.21854722103757    2.45167637164336
C         9.46883960940387    2.13441016027916    2.26868933233188
C        10.56568262645124    2.28893987453060    3.27975002871497
H        11.48278735369372    2.61663366727518    2.79533584513299
H        10.76029369976750    1.35449897591210    3.80273026798444
H        10.29037118434908    3.04350601919836    4.01805996702282
C         9.49454573361467    2.90421870647179    1.11475738307416
H        10.30539040017161    3.60483572481288    0.97199828428032
C         8.51464198178864    2.78929074544197    0.14021196059225
C         8.58421466126089    3.58986709840687   -1.12486981659388
H         9.17623574819123    4.49121159555150   -0.98558375874084
H         7.58843952497181    3.86835917603978   -1.46266412591771
H         9.05117682400508    2.99607599866001   -1.91166701853520
C         7.47905542543581    1.89030078275367    0.34938725315467
H         6.69809749837020    1.79748032114374   -0.39252369877791
C         7.42383945162278    1.10057976551387    1.48791746348371
C         6.28455046078749    0.13515514104640    1.65084087863788
H         6.50307076376354   -0.79541471070263    1.12591709092066
H         5.37389280857732    0.55060998474120    1.22288791804811
H         6.10661038603260   -0.10587996262963    2.69670829519736

