107
CSD_code = UTOLIA | q = -1 | S = 0 | Stoichiometry = C52H50CoN2O2(1-) | MND = 4
Co        4.36393133856658    8.43400757137603   14.25959563888704
O         4.58160310112387    5.52743517139282   14.64096200164608
O         4.15438679089437    9.97620514622082   16.74411432965936
N         1.88043806859951    9.13383521151401   12.76683627946330
N         6.56570822430401    9.16167365371320   12.39477326385308
C         2.88353040044374    8.81745088577645   13.34122922169061
C         4.48091609959732    6.67862969156705   14.48850493333977
C         4.26655288875889    9.36361101551925   15.75740148402929
C         5.76723146651714    8.87761735143031   13.23471947961070
C         0.63826044479130    9.10554064430750   12.26265897911360
C         0.00731852459352    7.87239513855884   11.99632052947688
C        -1.27838534097486    7.86258671531902   11.48826774736843
H        -1.76041833045431    6.91133085863226   11.30216654293684
C        -1.95406850712851    9.04694291165969   11.23400856879334
H        -2.96463345405864    9.02501266731382   10.85036480111846
C        -1.32650719592224   10.25737916233020   11.47675124248354
H        -1.84993436711038   11.18568662974060   11.28752447085798
C        -0.03774940903124   10.30785143540616   11.98278339525925
C         0.59859057568190   11.62176336128359   12.23065264202594
C         0.77731786709360   12.09307733235539   13.53178811328201
C         0.41452255563764   11.24878423764094   14.71491497424235
H        -0.45711907923017   10.63071503427966   14.50573713552186
H         0.21279686564632   11.86922500780273   15.58597948691761
H         1.24684581599822   10.58674485519071   14.95713201094555
C         1.30330802095989   13.36276418580229   13.72489850466456
H         1.43701611858617   13.72666187038099   14.73471399157409
C         1.65722239141120   14.17186696255691   12.65737302683652
C         2.16892977520462   15.56545472387541   12.87940663251555
H         2.91942937771282   15.82612819124897   12.13532186435351
H         2.60508755776945   15.66493443542376   13.87058261490551
H         1.34942946057487   16.28206941179203   12.79573820616207
C         1.50473567085370   13.67461510641824   11.37053833339713
H         1.80076053367470   14.28602609661441   10.52733193840690
C         0.98481968105423   12.41051588107952   11.14397976313801
C         0.85313512249773   11.88868634448487    9.74186671686653
H         1.24189376944750   10.87362381863856    9.67747511534009
H         1.39993128969127   12.52006746112250    9.04398179573528
H        -0.19221208422368   11.86184114082530    9.43434207869394
C         0.72377776816330    6.60517591291033   12.26936350940120
C         0.78766259297008    6.10089992160924   13.56851814078211
C         0.16949348672947    6.84945636466538   14.71113621707455
H         0.87186880612543    7.60487977103551   15.06644024653028
H        -0.05080734691789    6.17813919799921   15.53889172796236
H        -0.74581215078889    7.35393894103735   14.40452544527684
C         1.45558267514538    4.90921009883478   13.79665416130618
H         1.51576255580628    4.52185009969022   14.80443973455408
C         2.06797433150564    4.21281340009326   12.76563053919600
C         2.81245837341369    2.94527336197716   13.05890400324143
H         3.12252753454593    2.44764186740890   12.14168528496461
H         2.19628318410204    2.25930397753494   13.64007225421987
H         3.69890721591576    3.18043587607541   13.64635314472835
C         1.99929073070875    4.73126542877741   11.48227281612650
H         2.47613936977312    4.20183886347926   10.66653730189188
C         1.33737099870087    5.92091092044928   11.22063379839405
C         1.30077725414646    6.48695943457705    9.83037640078289
H         0.27517367076927    6.66780574260294    9.50988714880669
H         1.77415531158562    5.80897289405676    9.12291536622180
H         1.82857600180224    7.44034232393108    9.80269297991756
C         7.23149236685812    9.29199979147915   11.23707939019149
C         7.68396590398941    8.14756124047627   10.55267252567891
C         8.34394140299440    8.29953307444918    9.34671181559547
H         8.67595942392645    7.41699572614199    8.81511567735161
C         8.56736409371972    9.55963815157822    8.81186421810362
H         9.07272544127171    9.66307199335537    7.86148559613016
C         8.14467673131059   10.68573169130696    9.50082775429031
H         8.31782850848122   11.67072678585083    9.08715072037251
C         7.48351919275379   10.57272183151590   10.71163350366639
C         7.05170225961580   11.76465119012367   11.47731621682043
C         8.00932954037959   12.51946881057173   12.15666239307833
C         9.45936378720235   12.13129404606724   12.10402109972184
H         9.57811793046025   11.07876702332261   12.35803829922574
H        10.04216433336276   12.72812339263855   12.80277537669024
H         9.86534270235742   12.27574613834131   11.10289184094213
C         7.60685744460195   13.61503033606685   12.90429440521421
H         8.35152085871610   14.19499063193781   13.43473072601884
C         6.26955385860679   13.96567083482900   13.00429582391840
C         5.83668493667562   15.13765485966437   13.83545292876258
H         5.07867324842982   14.82605240663763   14.55206734271388
H         5.40390027033259   15.91518589403346   13.20535799687933
H         6.67783754729817   15.56245036375888   14.37941984019755
C         5.33029240403196   13.20456102608786   12.32528234600206
H         4.28169461275862   13.45281498201279   12.40559931329197
C         5.70166627777487   12.10955426842534   11.56002115584997
C         4.64840207158156   11.30823118389143   10.85903766507626
H         5.03645958381122   10.84947001500874    9.95103836665301
H         3.79313162275347   11.93383631880482   10.61377242553136
H         4.29866913610400   10.51399697266850   11.52058474169584
C         7.44794138404518    6.81435910186088   11.15417317795425
C         6.19609070706860    6.20712587031092   11.06352488566326
C         5.06002733893577    6.87520537015161   10.35101512675512
H         4.47960593899657    7.45355298103631   11.07256051370075
H         4.39679833325237    6.13558728275702    9.90825524759338
H         5.41698699317933    7.55126043770114    9.57595150019768
C         5.99466438893276    4.97955377311415   11.67613041984737
H         5.01642725364887    4.52421168241583   11.62393001903838
C         7.00739695531481    4.34787322727612   12.37996502585939
C         6.74995993529925    3.04840298766353   13.08270059693003
H         6.22454475147868    3.24549206736097   14.01735796261382
H         7.68138271986485    2.53538683649489   13.31588924794531
H         6.12577574286768    2.39382334084666   12.47657012615199
C         8.24758560748684    4.96390507019032   12.45679251340816
H         9.04571623192306    4.48650025959678   13.01114248670282
C         8.47941899303214    6.19138830367921   11.85797870116868
C         9.81325635966764    6.86746416444754   11.99625049833666
H        10.23361938452310    7.10789400495588   11.02022119422834
H        10.51407543107694    6.23223587918273   12.53426131037211
H         9.70060366352743    7.80217465847198   12.54595986336732

