47
CSD_code = UTOQAX | q = 0 | S = 0 | Stoichiometry = C19H22AuNO2S2 | MND = 4
Au        2.41587488913143    7.45432167385982    3.67013547021748
S         1.39554865634284    8.47974070633880    5.63438355609525
O        -0.07026092378002   10.12127959344856   -1.26828819443338
N         2.41433069123759    7.45278998608900    7.86030869620774
C         1.52149563342885    8.38903444653778    2.14772965882624
C         0.58234267131908    9.38598455686375    2.28432202463472
H         0.26775313513850    9.71095702104923    3.26572118930037
C         0.02164133818754    9.99398786654324    1.16674465214641
H        -0.71049371547652   10.77247710065267    1.31236517141889
C         0.40948307347724    9.59501927184489   -0.10596375792845
C         1.35936947300663    8.58358736716102   -0.24966664242890
H         1.64668719139412    8.28890276619244   -1.24619141163367
C         1.91546305111699    7.98149806666529    0.86533309241228
C        -1.02438608790701   11.15198727505810   -1.19561824419644
H        -1.94014798638150   10.81911618227964   -0.69621296928198
H        -1.25313246841044   11.41443340970713   -2.22733597578116
H        -0.62811034381569   12.03199940982812   -0.67855239070533
C         2.41421387859090    7.45262559218527    6.53635861827658
C         1.51194049265083    8.30279990148272    8.61154975705789
H         1.28144110539684    7.79685020901878    9.55154275176358
H         0.58977064532168    8.42035977474655    8.03748621929472
C         2.12415681426269    9.67411717837481    8.87809088058000
H         3.05992263661493    9.58145015535711    9.42482821888708
H         1.43495306426059   10.27667862739369    9.46247225685244
H         2.31758168784119   10.18106025759987    7.93664928750995
S         3.43218424228018    6.42476451407745    5.63444889177341
C         3.31676584053256    6.60282333300228    8.61156062972731
H         3.54733785256803    7.10880567959011    9.55152165431161
H         4.23889720628971    6.48522151327307    8.03744584355827
C         2.70453019767643    5.23151031532671    8.87813314901468
H         1.76878787002204    5.32417792746717    9.42490829935029
H         3.39375827927903    4.62893412101054    9.46247344513833
H         2.51105500664299    4.72457086161467    7.93669556580627
O         4.89894498588228    4.78434370864849   -1.26826807987020
C         3.30691045353413    6.51635883619791    2.14774463759751
C         4.24614145804899    5.51947979047297    2.28434198988855
H         4.56092127677259    5.19468840111834    3.26573964073077
C         4.80695911054994    4.91157668377617    1.16676653593663
H         5.53917812405125    4.13316796752745    1.31238898835016
C         4.41914980806297    5.31056333020453   -0.10594582244764
C         3.46923253721960    6.32196512946143   -0.24965366492645
H         3.18196462174623    6.61668124268137   -1.24618352469647
C         2.91304878319694    6.92398265729273    0.86534048850243
C         5.85306554072605    3.75362965559340   -1.19560023783379
H         6.76882934446491    4.08649351528951   -0.69619313988917
H         6.08181558692844    3.49118500149918   -2.22731851349126
H         5.45678327056910    2.87361741860043   -0.67853869162379

