45
CSD_code = UTOQEB | q = 0 | S = 0 | Stoichiometry = C19H16AuF6NS2 | MND = 4
Au       11.38930679102324    6.25187132741176    5.30154331278894
S        11.83878055863051    8.18933969077381    6.67196511963184
F        13.18462758826348    0.29055312281861    8.21388924641728
F        13.30206323115475    1.49461324686053    9.99144388337252
F        11.40729306879484    0.71113339270670    9.34601446648255
N        11.38806434660462   10.42317578489815    5.30188776749857
C        11.79954838816074    4.73109595811515    6.53781845227620
C        12.23196900341110    4.87038785289197    7.84093802786725
H        12.37367076454928    5.85187019425768    8.26815893818732
C        12.48925115745850    3.74947869274307    8.61861148485429
H        12.82856342206177    3.85968668251362    9.63693967369309
C        12.31103491426344    2.48715179498377    8.07359622777709
C        11.87339663520432    2.32888836297931    6.76594135425297
H        11.74044944339311    1.33682013913842    6.36281574596830
C        11.61766800978274    3.45304987485742    5.99185450161567
C        12.55706817409461    1.25818891103347    8.90293323931942
C        11.38767842911644    9.10379905634756    5.30203776414890
C        11.78684513079720   11.17537423986429    6.47611606164121
H        12.23136890586881   12.11306690209851    6.13675396807106
H        12.54311916553026   10.60096022254818    7.01625406203194
C        10.59869594898717   11.44717258685062    7.39290798029081
H         9.82078945505903   11.99661524020775    6.86763951973040
H        10.92296494437278   12.03229425659367    8.24833854459383
H        10.18332771714126   10.50908108219844    7.75129121567592
S        10.93905453860422    8.18921875458396    3.93136372170445
C        10.98978158617536   11.17539352620723    4.12751032957532
H        10.54555277008195   12.11322302626036    4.46681514714185
H        10.23329964961378   10.60122376568155    3.58740583832906
C        12.17796395821289   11.44702562325094    3.21069741937824
H        12.95600694531350   11.99627173299213    3.73598231242904
H        11.85383377464283   12.03227706758572    2.35529551064010
H        12.59311092810705   10.50886419315310    2.85225813163098
F         9.59155252969580    0.29089521495874    2.38979037656934
F         9.47489062274331    1.49474185185920    0.61203865988105
F        11.36924757279278    0.71064153487029    1.25792515063370
C        10.97741390898287    4.73112013630172    4.06574728295946
C        10.54519933296692    4.87041645538878    2.76255443979984
H        10.40379127946874    5.85189945522162    2.33523841297204
C        10.28794062147354    3.74951010659949    1.98486084086947
H         9.94872013392155    3.85972489936753    0.96650209031313
C        10.46593749714428    2.48718024371963    2.52993666947459
C        10.90352595908645    2.32890786358810    3.83760810854360
H        11.03633266516140    1.33683487412483    4.24076965301359
C        11.15929598098908    3.45306238288634    4.61169467903297
C        10.21960255109807    1.25819867569496    1.70071466691722

