88
CSD_code = UTOVUW | q = 0 | S = 0 | Stoichiometry = C36H47ClIrNP2 | MND = 6
Ir       11.30153176725339    7.30795382844341   11.77908862112468
H         9.99339785240251    6.57132300183928   11.49672958781418
N        13.15530352625098    8.56398415358609   12.12006282813855
Cl       12.74796408900383    5.34412371046362   12.16603084945922
P        12.29812136934740    7.11294737087841    9.69605453613250
C        12.84687329473835    9.79392152847477   11.41147091158111
C        11.48114760275315   10.11285940669252   11.21010690746631
P        11.04386189583954    7.39803825710944   14.04777003758552
C        13.83400866551633   10.63372233622144   10.95822812126507
H        14.87424301951653   10.34055875974848   11.00236534730366
C        11.15542095704368   11.40177737142504   10.70762269024624
C         9.79931684494065   11.73031757640828   10.51967344454864
H         9.54506885958081   12.72039843859144   10.16954060613832
C         8.83276444288447   10.78798921275489   10.73816012799832
H         7.79206956631377   11.03258413306190   10.57771900198585
C         9.17397116787891    9.48547991331535   11.12873624252875
H         8.38369809349744    8.75491684224236   11.21668144874505
C        13.12824525836367    8.60823163768725    7.33683441820437
H        14.12286199855013    8.56798332495671    7.77819887981165
H        13.01303755519137    9.58156909524228    6.86026028418968
H        13.05334032162456    7.85122838195664    6.56295144814056
C        12.64762749329587    5.33359362784991    7.38863782508205
H        13.61214544221535    5.77386046033953    7.15243352705294
H        11.88794372059005    5.80185633513667    6.76774740517963
H        12.69203951090341    4.27919100436831    7.11490476937092
C        10.91024167426300    4.80623651589518    9.09208872731050
H        10.70361950994153    4.73268841475716   10.15648619697812
H        10.88164394409028    3.80547824534999    8.66415209949720
H        10.12846634407233    5.40626799028662    8.63089509691058
C        10.64816702500470    8.32916947201959    7.81628879636560
H         9.92478864720987    8.19997396903902    8.62068229103943
H        10.56944223460358    7.48501759319260    7.13607622285327
H        10.39473238453175    9.23347430555989    7.26507269747857
C        12.05049739071222    8.44838046893302    8.40356647649973
H        12.06802045256043    9.36277422813765    9.00777045557231
C        12.28677681540853    5.43144308387050    8.86880378694608
H        13.01778802216974    4.86015709208636    9.45421960754816
C         9.91850693019652    9.91316422745289   14.62001854460413
H         9.17388120497144   10.48715833726336   15.17004232501675
H         9.76322869838228   10.08177353867488   13.55818725155026
H        10.90342356760703   10.28889354523284   14.89178269303324
C        10.74824913649462    5.80400993711058   16.47758557424526
H        10.84992593598624    4.79250218167644   16.86957449997935
H         9.71932831386213    6.11752972386810   16.63950320191743
H        11.40926487579495    6.44087569104868   17.05855490654344
C        10.47808985662299    9.11592180598345   11.38359549327457
C        14.03410553764185    7.31943811406752   10.23025373718631
C        15.09124836783543    6.73585616675607    9.55190744369769
H        14.92196066985192    6.29387916043959    8.58276182561526
C        17.49376132877976    6.04771878884703    9.33092148561064
H        18.25718873101355    5.66228680656858   10.00222846525681
H        17.95539288417459    6.79777764842933    8.68675006612982
H        17.13709134074831    5.23644857425493    8.70011408767172
C        16.36434824794434    6.65849552596171   10.10274216040175
C        16.54409691638780    7.13709537884936   11.38914171668926
H        17.50529053579109    7.03708152391772   11.87254332105426
C        15.50609830698272    7.74282065896485   12.07714913712091
H        15.68566820906085    8.07743634022853   13.08738020695634
C        14.25538297244455    7.88431458959557   11.49669796100190
C        14.11716839156240    9.73812541841422   17.67704208462219
H        13.95492335225575    8.84917281259397   18.28269429022254
H        13.43890573914601   10.51512148957285   18.03138362582927
H        15.13660951689096   10.08555340730318   17.82542733919347
C        14.34126091751458    9.78954994159901   13.90015901435231
H        14.92346406550280   10.29918299327428   13.14862298480049
C        14.59469825477550   10.06620108291391   15.22802239107461
H        15.37523307015148   10.76769286836686   15.48507464665552
C        13.85634929624883    9.45175714452651   16.23041796972479
C        12.82820669380046    8.60621482417698   15.84951898772989
H        12.20750888018408    8.17560514730269   16.61884421685757
C        12.55464466425096    8.31610482540056   14.51587617514730
C        13.35190521498675    8.88420219990816   13.51972610590589
C        11.09614921593131    5.77802632750153   14.99145362406357
H        12.13471115800589    5.44657238672163   14.86961374670434
C         9.77184823863314    8.43150935286887   14.95051871027754
H         9.92945874239631    8.29951507438460   16.02662702674652
C         8.38063383048990    7.93872414720035   14.56865056724366
H         7.61911793120144    8.60465442295629   14.97172603943086
H         8.19481027681478    6.93879128012886   14.95198364831751
H         8.28929965352967    7.91350313302001   13.48496836617694
C        10.19536227103138    4.76757384032849   14.28047855559470
H        10.29702341828119    3.79017738832052   14.74889947438650
H        10.48501739124823    4.67930600586563   13.23774912130892
H         9.15110654772066    5.06579566252774   14.32380434376536
C        12.19697216552582   12.28091028297288   10.34542051382970
H        11.94082062284993   13.25930324162641    9.96484363894429
C        13.50164718276076   11.88341962287979   10.41726306801188
H        14.29492196755621   12.53378432235233   10.07854129635850

