88
CSD_code = UTOWIL | q = 0 | S = 0 | Stoichiometry = C36H48IrNP2 | MND = 6
Ir        3.15293329911029   17.62022731913716   14.28182694501777
N         3.24465055340130   16.11872815386240   12.59310040772809
C         4.37234473395234   16.57603898838169   11.79346210688352
H         2.42494725256077   16.62100223316707   15.26828461044014
H         3.19193110209055   18.70705484924534   15.37580362628400
C         5.07199041847224   15.71273921538901   10.98663060664433
H         4.89193865082871   14.64624922244725   11.02482358112903
P         5.05358288594443   16.46309716477293   14.85175086550057
C         6.05033810032080   16.20872953873856   10.11390491922674
H         6.58948678438438   15.51533633150797    9.48428586078156
P         1.12862000244377   18.14067147507141   13.42316458387415
C         6.29689674782146   17.55072326384542   10.04525589751836
H         7.02439722384748   17.93935888133794    9.34602362626325
C         5.65006594445998   18.44958581174071   10.91761376621280
C         4.69832746736064   17.95107734714829   11.84904436977116
C         5.95909123205811   19.82200139184452   10.94404283082040
H         6.65856570040238   20.21730101586081   10.22020299084436
C         4.55237485681469   20.08704633298623   12.88106911680645
H         4.20556476542805   20.75074146361418   13.66170725460915
C         4.16463245735383   18.76038866576687   12.89315359828467
C         5.40304582049562   20.62236268576893   11.90381440675248
H         5.64569197032764   21.67664905036883   11.93607389960441
C         4.56024713091521   14.83608341293588   14.16902898669840
C         4.96395239870578   13.62359502138380   14.70180529600645
H         5.75669726097948   13.59698064594835   15.43529621296985
C         4.80533272672784   11.13493694302188   14.95303236053720
H         4.38001942782251   10.28579693538909   14.42387213180187
H         4.49381935629796   11.07901848478018   15.99653473468335
H         5.89109428380647   11.05948044275959   14.92504317137316
C         4.34834739160123   12.42708710366959   14.34684103818030
C         3.27160658735630   12.48077304022517   13.47856084014122
H         2.73462935333483   11.57645331741937   13.23030435117893
C         2.87173241794528   13.67890236941345   12.90742287116242
H         2.02373562497189   13.67848025955822   12.23905927874590
C         3.53574682333710   14.85843112468262   13.20550303676987
C         1.41835197819011   19.98485421815909   11.31797535344529
H         1.24900140717437   19.18777800824409   10.59568895765160
H         2.48297375734102   20.03741263633081   11.53163036108355
H         1.11450524788182   20.92639772822539   10.86177148303329
C         0.88098498976670   20.90314144090421   13.58186028068045
H         1.87342306509153   20.80330942845114   14.01659125048291
H         0.15254289499550   20.90326815633588   14.38833024218844
H         0.81591428537003   21.85977271499890   13.06551973920381
C         0.63344497953771   19.75697231362256   12.60596704963303
H        -0.43704444738276   19.70661980219755   12.36813817350971
C        -0.57793326541165   16.18340593932463   14.45502482252682
H        -0.72726215782797   15.72324950544317   13.47976815914149
H        -1.42496834560322   15.92554625180379   15.08881203402410
H         0.32347407876013   15.76804367179529   14.90216486737010
C        -0.39840893130600   18.31103865417597   15.74524037186805
H         0.52421143446913   18.00947016611848   16.23785986678843
H        -1.24655651255093   17.96825883221717   16.33607065036791
H        -0.42389506446940   19.39615645544144   15.70778694001563
C        -0.44288895366165   17.69898462757945   14.34976811584993
H        -1.29810500528958   18.10476340009189   13.79388393662806
C         1.01604175966046   17.00013448152842   12.00523552481286
C        -0.09848299217757   17.00630316757740   11.17229482585618
H        -0.92822833157853   17.65701858339591   11.40958170232247
C        -1.39140159832579   16.23105191426609    9.17349228607305
H        -1.62865925343467   17.25162971311658    8.87692552522138
H        -2.24891132847841   15.83478154004174    9.71700618384038
H        -1.24296417326304   15.63254765441385    8.27844762863692
C        -0.17189250798907   16.20800312367429   10.04283316984842
C         0.92133044348626   15.40508024199244    9.74289696705836
H         0.90949156034042   14.79058924210286    8.85418085978522
C         2.03005075085779   15.38073319621909   10.56550866980231
H         2.86428239677507   14.75548675447631   10.28823602578898
C         2.08560144245703   16.15227165178577   11.72458999707859
C         5.42030123508631   16.07254971124686   16.64109150077095
H         6.27227538340736   15.38440019231668   16.68392957788440
C         7.25712123426212   18.14735501028027   14.31299310139730
H         7.94561728652671   18.43110365153268   13.51830693081522
H         7.78418172573567   18.23818477535487   15.25962246653781
H         6.42441134551877   18.84864943953598   14.30975202812574
C         7.81386349851793   15.69358373635871   14.48091582811544
H         7.46521049877755   14.67937814462385   14.29697800869315
H         8.09965746351105   15.79023071991895   15.52614737084225
H         8.70612645132018   15.85597626649083   13.87677498732130
C         6.75768368572628   16.72118055661017   14.09020311196104
H         6.56755693015696   16.60034498297544   13.01739965064599
C         4.22265695575711   15.43138554117842   17.33251326681327
H         3.39280993692784   16.13255754730554   17.34610119146224
H         4.48273213775626   15.17452990100655   18.35874382023258
H         3.89674978031503   14.52806663957666   16.82169288553530
C         5.77319171256442   17.37709045430638   17.35101617394166
H         6.72442806295297   17.77702611413264   17.01232592694288
H         5.83569204415235   17.21444382937917   18.42609656947392
H         4.99543027393047   18.11435806659469   17.15346939956646

