85
CSD_code = UTOWEH | q = 0 | S = 0 | Stoichiometry = C33H47ClIrNP2 | MND = 6
Ir        4.89486890640974    5.84793641121284   11.62641461777268
N         6.83261234281264    4.71926995259862   12.06873868354183
P         4.67713676533764    5.85109960313754   13.91027445244643
H         3.33605203949932    3.60073441308022   10.97595386832511
C         4.22386564544422    3.84390608112148   11.56528455420415
P         5.95631830332216    6.03831840395589    9.55379253245154
Cl        6.00498837183292    8.03913227287730   11.75088806097201
C         6.67196342931164    3.50567194749901   11.28891412849166
H         4.01290013016087    3.52447655756246   12.59182076816932
C         5.37186735396721    3.03867259946225   11.07854319000127
C         5.20603991585272    1.85480118775982   10.36417029062428
H         4.20508365697184    1.48755845888060   10.18995935776508
C         6.29390386698695    1.16787012292714    9.85675678654838
H         6.14413600151602    0.25412354142880    9.30064373672785
C         7.57322517153746    1.66566403575643   10.03758186514415
H         8.42482415098037    1.15193469332591    9.61716704467290
C         7.76261249589719    2.83431989120058   10.75554372986092
H         8.75980150597332    3.23942351681490   10.86518653672304
C         9.03328366070767    5.84049005356623   12.19915481485252
H         9.17177716958604    5.50876950185963   13.21805749425953
C         6.96515584657463    4.32283502519086   13.45195957993910
C         6.03916702172880    4.73866512137067   14.40961770872044
C         6.16599024260829    4.28844816760539   15.72227283201664
H         5.44040509216163    4.60200488636500   16.45764426393239
C         7.18748153757963    3.43851302546911   16.11079160807846
C         8.09629326007795    3.02227974709261   15.14461233976979
H         8.89785595787537    2.35064562014331   15.41617231901959
C         7.29152144443425    2.95095342691532   17.52312685113874
H         6.85055923150736    1.95699574462496   17.60674355629207
H         6.76471200621940    3.61448599260824   18.20467034215427
H         8.33259777798839    2.88085476186949   17.83098794092135
H         3.52130695292235    6.42026049884443   11.28092193572392
C         7.98099554204671    3.45020781293886   13.83855259178898
H         8.68959372882771    3.09254501821447   13.10721942056534
C         7.86488504547960    5.53926111775552   11.51988884197319
C         7.66244083655947    6.06899013912271   10.23207080675093
C         8.68311622543211    6.79212729074928    9.63986310085262
H         8.53972954806638    7.20990133079278    8.65584985521015
C        10.02874951392920    6.59042585525290   11.59424922821825
H        10.92737376573263    6.81820398293998   12.14950405187223
C         9.88384255217612    7.04424519187051   10.29515341296720
C        10.95500432700324    7.84574791680968    9.62005118188857
H        11.10945726934833    7.50076018205263    8.59878067143316
H        11.89473236633613    7.77287863420226   10.16218446014680
H        10.66411434258807    8.89549105717762    9.57824329426651
C         1.93818487243639    5.80197220806557   14.18341398892040
H         1.88686760199411    5.39967674373516   13.17332413775367
H         1.96073133891704    6.88418654488359   14.10447726891419
H         1.04184281697708    5.51014934473794   14.72883568918871
C         3.03849077129081    3.74823341386959   15.05052011310476
H         2.65088483639870    3.30223879704540   14.13839132136781
H         2.32467958996702    3.53982653702818   15.84718176163909
H         3.97668009604708    3.25894671494229   15.30135309897010
C         5.17103252107509    7.43349698637450   14.77692418347100
H         6.05699058737721    7.74323953656563   14.20917477854992
C         4.09545322774862    8.49436275867108   14.55957565576051
H         3.78503058386676    8.49674604300973   13.51625412157490
H         4.49775878771923    9.47815831332715   14.79409197185188
H         3.23217164680423    8.31910616929806   15.19870258115215
C         5.55621812840285    7.34238301064856   16.24888933662560
H         5.80787781055152    8.34227610768547   16.60029829023870
H         6.42750069165449    6.70895289147840   16.39924385894080
H         4.73705732290258    6.97550009920152   16.86575040654558
C         5.97193073063993    4.65467109032524    8.28311907072876
H         6.03663375272300    3.76008633897488    8.90590844145563
C         4.61857619013579    4.59891556555811    7.58142325030866
H         4.51005079484784    5.39367481488716    6.84818045980032
H         3.82183083432078    4.69455917002043    8.31853106002987
H         4.50341237887693    3.64653811036239    7.06550969333570
C         7.14992299794856    4.58897203843303    7.31606009659232
H         7.21089121118311    3.58313913109913    6.90031866601657
H         8.08728192401092    4.79387815865459    7.83118878628926
H         7.04249086635757    5.28165704281986    6.48798554461329
C         5.80250957061910    7.65751326866083    8.61615075727161
H         6.38831546602001    8.35872163593624    9.22121810722760
C         4.33839118309325    8.09299709682383    8.67608853018603
H         4.22148575103095    9.06951606363030    8.20892501064971
H         4.01293492682251    8.16385232217145    9.71094012444524
H         3.69541349887806    7.38199441943599    8.16188192170207
C         6.29173367311478    7.73704959548705    7.17224390200116
H         5.66016580600283    7.15585242800290    6.50532459288480
H         7.32118936129835    7.41223169026204    7.05169944233380
H         6.23580547782351    8.77770937380752    6.85144237773468
C         3.18253366436128    5.26073896475709   14.88526214252423
H         3.26240438837183    5.71627866534710   15.87961674825274

