85
CSD_code = UTOWAD | q = 0 | S = 0 | Stoichiometry = C33H47ClIrNP2 | MND = 6
Ir       -1.99023561848504    2.48765948460449    3.97662223403993
P        -2.54115139246530    3.27442456414397    1.85883899812673
C         1.13326275419394    1.81809013237600    3.78762379964911
C         0.09494898148965    3.88924031916598    3.29954285354219
C         0.81396899541828    1.33047131241333    5.05949625614364
C         1.78481220809420    0.66911248879427    5.80637323324866
H         1.51637253313578    0.25319572713094    6.76605873076915
C         3.08256994692985    0.51337368035665    5.34827957880866
C         3.40837873196926    1.06944473309120    4.11796196406517
H         4.42099018059392    0.99602926654912    3.74750867921499
C         2.45333792286103    1.70962019837228    3.35377347408302
H         2.74758233166167    2.12746142459333    2.40533905068854
C         4.10110968187868   -0.23605517320191    6.15069341810901
H         5.09007819770410    0.19875148669762    6.02312379452755
H         4.14550428447346   -1.27358285639327    5.81752356155428
H         3.84560067905938   -0.23170773215196    7.20771981976054
H        -3.29616678364265    2.81878794866007    4.69921188732664
C        -0.03698908879073    2.08270413171740    1.64214766731110
C        -1.11526508431336    2.63449323894179    0.91867828878013
C        -1.18391261242051    2.44568538584488   -0.45439333798552
H        -1.97735990394741    2.92110436384456   -1.01284550469359
C        -0.28309650829550    1.63221920832071   -1.12894730442741
C         0.63912895917193    0.92891135507987   -0.36936489644615
H         1.28301350118526    0.20188333818910   -0.84309850963265
C         0.76553754529339    1.14944204727775    0.98988225522465
H         1.48395449014628    0.56460152627915    1.54283335632841
C        -0.37881589368483    1.46226433130395   -2.61482269714808
H        -0.31576206191243    2.42847858405606   -3.11472490941033
H        -1.33251107196707    1.00906202449717   -2.88552653637182
H         0.42113837706541    0.82559960180736   -2.98421511678995
N         0.12278414045731    2.45264580715502    2.99230539607510
Cl       -2.59745836238858    0.27962905729017    3.24211355090553
P        -0.84640179093029    1.63065435051770    5.75969705266140
C         2.03258558039264    4.58789637089473    1.77272466820616
H         1.76141966793776    3.75598866385537    1.12534341698274
H         2.99984349704536    4.38164932232466    2.23332848286455
H         2.14666051395642    5.47653957244370    1.15316061886176
C         0.99046443025131    4.83797137122706    2.82353765518919
C         0.86130928029500    6.12782294767776    3.34291124245340
H         1.54605148907045    6.89126077662165    3.00132806761047
C        -0.11483047582536    6.44643022010688    4.26729133380341
H        -0.16971401340228    7.45248722557474    4.65844079866733
C        -1.05056439019773    5.49902498234370    4.65778126884422
H        -1.84986666282256    5.76757620194096    5.33141932751469
C        -0.95653803597374    4.20870373018148    4.16443940998113
C        -0.43040411866280    2.87750156822207    7.10056564995867
H        -0.02717874775560    3.71854767959325    6.52066840471516
C        -1.28956994189163    0.04925517662870    6.64314099227095
H        -0.75653785669198    0.03079489584931    7.60312644329123
C        -1.71827835917819    3.34652228905122    7.77258068799358
H        -2.49328837714548    3.50206634248623    7.02373806932574
H        -1.54537323015506    4.28418503657266    8.29775241854804
H        -2.06374275708632    2.61375916237475    8.49811841827847
C         0.60609160242400    2.48382737275545    8.14625205155331
H         1.58196168217927    2.31342532409740    7.69857926588817
H         0.30511720442792    1.59631037931106    8.69929254492444
H         0.70704138283788    3.29865032220189    8.86227759666915
C        -2.79621961491942    0.06984104810674    6.89386893507688
H        -3.31758046273029    0.10196710823366    5.93927176519004
H        -3.09719851424824    0.93906985435162    7.47228401395975
H        -3.10134378876517   -0.82875690270547    7.42766202068637
C        -0.92588515801358   -1.18566133198996    5.82325025700158
H        -1.43118998656089   -1.14708653194515    4.86098402349557
H        -1.25813031354236   -2.08121865934095    6.34655890403591
H         0.14477642786383   -1.26881339871424    5.64925373263260
C        -2.50444443938504    5.11568259191304    1.50322606044269
H        -1.59000136688339    5.46005927523798    1.99823789541562
C        -4.07497508387697    2.67987000725052    0.96403117885709
H        -4.30828701154663    3.41299865583427    0.18017238783216
C        -3.68548278045297    5.80556736153079    2.17764072646060
H        -3.52381729007697    6.88222834123857    2.20220150845863
H        -3.78772938925534    5.44797072466696    3.20106272150219
H        -4.60974207917087    5.61542522168850    1.63655832772081
C        -2.40085052446330    5.50076143556155    0.03182578783316
H        -1.48618185354538    5.11378618040717   -0.41156782976939
H        -2.37912322250369    6.58704445556261   -0.04972167911829
H        -3.25273907949435    5.14394534410440   -0.54379790747066
C        -5.19688018027090    2.67103705333542    2.00412825095926
H        -6.14839928520126    2.43607695488434    1.52969378907002
H        -5.28708509781948    3.62553175899473    2.51564095945506
H        -4.98313814567419    1.90938198816523    2.75168311965335
C        -3.97354196336351    1.28730734562895    0.34819497451592
H        -4.95279410801762    0.99364692559205   -0.02837563742232
H        -3.67005622837017    0.56740539508827    1.10348309898838
H        -3.26576709330797    1.23763950538739   -0.47396030797816

