85
CSD_code = UTOXEI | q = 0 | S = 0 | Stoichiometry = C33H48IrNP2 | MND = 6
Ir        7.23564648889773    3.77334908282846    7.11698342814235
P         6.57582618553471    2.03357039549090    5.81571089378643
H         7.66668489442339    2.72776049900840    8.21348841686125
P         7.32934806835540    5.19800385758340    8.92017629840715
H         8.69940190319379    3.87743964166546    6.64638236064851
N         5.03175929023717    3.87801162337186    7.68289344064061
C         4.19378189497933    3.00848879332496    6.89445206033286
C         4.75370665018997    2.11796316063933    5.97816156292104
C         3.91505261157928    1.31631401361575    5.20961072613025
H         4.35044419113501    0.62221755245101    4.50799981257259
C         2.53668777038223    1.38557750457856    5.31092484687416
C         1.99089563259308    2.29762137658742    6.20785196975378
H         0.91755678887612    2.38365355981312    6.29799580386932
C         2.80551027255143    3.09774653793636    6.98071471967513
H         2.35383870383712    3.80823240968357    7.65629469599521
C         1.64846675135171    0.50802201728992    4.48344157054974
H         0.88326381412986    1.10108724308410    3.98541977099381
H         1.14367494699553   -0.22027022201518    5.11836979653199
H         2.22026534231334   -0.02937343071795    3.73100671079707
C         5.01596022639610    3.69726764181186    9.09726798600355
C         5.93306037608181    4.45300954365913    9.85198804862867
C         5.86512494875991    4.40616111440812   11.23373073280992
H         6.55432844215376    4.99182086464622   11.82445051434053
C         4.95108139088905    3.59110640527337   11.89580346704244
C         6.42505922555643    5.09168013425581    5.61165742962169
H         7.04538712886859    5.78155755795366    5.02986901992267
H         5.91476696817506    4.46131260578371    4.86437836573629
C         4.12539515600851    2.78047954907406   11.13563582779465
H         3.44294938830588    2.09859391001516   11.62254324207368
C         4.14686495069198    2.83884283807637    9.75092153164933
H         3.48426400931502    2.19835857600679    9.18697501952818
C         4.89535759544670    3.58107645173581   13.39355837009573
H         4.35929379130557    2.70748196246344   13.75623684312021
H         4.38155335656579    4.47226322123551   13.75628662085113
H         5.89832591206026    3.57909708010175   13.81653794609670
C         5.37112345076283    5.85833002186595    6.30344474187107
C         4.67223605778013    5.25034929749172    7.35163899692602
C         5.05529874214195    7.18226261694209    5.99699801863368
H         5.59716002841958    7.67484742573233    5.20175522617826
C         4.08362173359253    7.86902325507627    6.69867905015733
H         3.85906983830510    8.89573028362013    6.44610505765283
C         3.69795517854109    5.93509716836238    8.05959942908351
H         3.19945549348575    5.46895890450557    8.90015799871905
C         8.75042304571252    5.05709436405812   10.12916337371142
H         8.52050842923032    5.67943443193102   11.00094206947616
C         7.76567184336035    7.78400082531059    7.91270881035621
H         7.91261043889796    7.15699671031413    7.03544330441267
H         8.74249971527345    8.05863743655166    8.30286768441907
H         7.25717043161382    8.69728507839296    7.60749558370528
C         7.01504831742355    7.72181951026309   10.32093489625396
H         6.61432311001364    8.73172240044419   10.23537683394899
H         8.04124844474409    7.80162121807065   10.67263648834856
H         6.42181843212114    7.18951761458297   11.06172008381835
C        10.00987919794508    5.57712717788332    9.44118105850271
H        10.12648585629617    5.07359483590198    8.48199388634422
H        10.88597026404473    5.37087671178240   10.05437162854956
H         9.96170128260888    6.64828836146605    9.26802978031747
C         8.98812507888445    3.62600023553376   10.59647055725969
H         9.32283141407069    3.01895811320520    9.76029021404298
H         8.08436532815132    3.17836863302913   11.00365609512142
H         9.75769769066815    3.61539024326948   11.36768048316078
C         6.86354074658494    0.27724365667350    6.39047557462758
H         6.42249516422604   -0.40751391995078    5.65792329983421
C         6.83189522549878    1.94834389725174    3.94598640935811
H         6.00272519401199    2.53152638058272    3.52311479349300
C         8.36558814532072    0.04234439793999    6.49331295706481
H         8.85225904516643    0.15361304712594    5.52710402945993
H         8.57244081013953   -0.95768939102159    6.87170931858006
H         8.79598207362406    0.77660285712343    7.17179927224262
C         6.19135710914469    0.05054790559836    7.73958882442572
H         5.10732353509263    0.12212287619508    7.65924134094693
H         6.53762036930070    0.79241104927141    8.45715329853440
H         6.44175950243436   -0.93802221497447    8.12146630306467
C         8.14456874947825    2.66281113252924    3.62846686671347
H         8.28290772851238    2.74207188492060    2.55100628084495
H         8.98508804911016    2.11422516437632    4.04785134012249
H         8.15304401437120    3.65921172684598    4.06062743689962
C         6.84312237320236    0.57315303690953    3.28168961788026
H         6.95568335221573    0.70904834533576    2.20595867027313
H         5.92799534604350    0.00898281964941    3.44295182295257
H         7.68246682870519   -0.02361788926830    3.62924017180827
C         6.93567395693552    7.04260436508953    8.95854331923175
H         5.88902664503675    7.08139991920190    8.64095172119979
C         3.40064930832773    7.24889145662761    7.73220082881933
H         2.64870283498302    7.78402956237069    8.29327529673354

