87
CSD_code = UTOYIN | q = 0 | S = 0 | Stoichiometry = C33H50IrNP2 | MND = 5
Ir       -0.99002937232031    5.63197565771545   15.32062122274557
P        -0.53541222993457    4.99414268222639   13.08399174645418
H        -0.83656475312255    7.06069480780928   14.75006434187625
P        -1.81604871871815    6.44321246609882   17.29150545983643
H         0.47677159911065    5.72383961604062   15.74626085556400
N        -1.55649841338724    3.81608188318718   16.24864499696056
C        -1.32166622231024    6.15746126849629   11.89958082087972
C        -1.39654760905907    2.57994124229000   15.61360726961967
C        -3.19719941272920    3.76658515722181   21.70969253360364
H        -3.24394964008736    4.77548770515419   22.11416621283607
H        -2.49481226448678    3.18635694982250   22.30811126661272
H        -4.18080644402458    3.30696963405960   21.81502620141436
C        -2.18032245962006    2.57742541684407   18.25645926946096
H        -1.99390540108979    1.62881956244174   17.77282152319222
C        -2.57607022439977    2.59446543092056   19.57079644773888
H        -2.72238384017360    1.65471343591746   20.08712080704150
C        -2.77361734746566    3.78633183161150   20.27039685953982
C        -2.54652638795081    4.97169858382455   19.59548591555684
H        -2.65192803187816    5.91040204006797   20.12347048910559
C        -2.17426438284391    4.97671797268087   18.25815147361893
C        -1.97364224012610    3.77521900131995   17.53507518551075
C        -0.93936505228307    7.64286475688234    8.42689379298864
H        -1.52333380502182    7.14757897644316    7.65078130760643
H         0.09388104785751    7.31629392242641    8.33967087642156
H        -0.98493931131860    8.71463600443449    8.24312693670104
C        -2.54049454393102    6.71078259593564   12.27672021775957
H        -2.93921416771134    6.49137419830431   13.25812157924451
C        -3.23513989773381    7.54864348707879   11.42571874482976
H        -4.18088255556540    7.97121918345022   11.73327617717304
C        -2.71637194280421    7.84965396105625   10.17970054337466
H        -3.25541342647866    8.50706109664629    9.51266945986196
C        -1.49663011500455    7.31713098192960    9.78009378365332
C        -0.81336796474190    6.47204094891146   10.64399629840475
H         0.13584078901031    6.07241505640015   10.32063136035544
C        -0.10943658839720    2.10343786683271   15.36319563663795
H         0.72543178986556    2.70107799855822   15.69777481116865
C         0.09384676671130    0.89600435455699   14.72469393991822
H         1.09994369881244    0.54064421230667   14.55029086526013
C        -0.99351105796281    0.13907157592038   14.31994316273791
H        -0.84596922834634   -0.80608469495670   13.81776075685105
C        -2.27478978452215    0.59673813849121   14.57428276222457
H        -3.12531120882870    0.00101299583383   14.26933030876598
C        -2.49956000056500    1.79996695337854   15.22517003594070
C        -3.90175073955937    2.24291105956900   15.52457840004750
H        -3.98474515094954    3.32876045024702   15.50036051239845
H        -4.19594631425962    1.92057424331495   16.52564136604660
H        -4.60428011225938    1.81901735901568   14.80888776829665
C        -3.47180637652728    7.26375995544895   16.98986171429151
H        -3.26065996135242    8.13988489308828   16.36425877102283
C        -0.91645981416637    7.59879189582820   18.43138347353516
H        -1.53135937437449    7.75915332457659   19.32464939760681
C        -4.21164047208718    7.69947449274718   18.24790272481350
H        -5.17075912853424    8.13946631734800   17.97430465213106
H        -3.64879071415102    8.44388203710481   18.80615313516772
H        -4.40476115703133    6.84419673004882   18.89251705364158
C        -4.31499387942759    6.27481766886838   16.18983969511060
H        -5.25007457710108    6.72846133304353   15.86124091461979
H        -4.55019484765698    5.40165258297553   16.79961231651466
H        -3.77083249740250    5.94003292534425   15.30291040401527
C        -0.65618827127513    8.92607459872512   17.72949720515827
H        -0.15085228129392    8.74192610417772   16.78301648711043
H        -0.02408958235333    9.56195257822624   18.34727733081013
H        -1.58351441691233    9.45857516429455   17.52964209475267
C         0.39044466380124    6.92564258015877   18.83641856397910
H         0.99521940353462    6.74148099173475   17.94969734067695
H         0.19575593397251    5.97150159320542   19.32331847443066
H         0.95168076747795    7.55879439661647   19.52161688774835
C         1.25413509014343    5.05444657756746   12.56175194343100
H         1.31475398329454    4.83101832952725   11.49185101701838
C        -1.15379974233494    3.38716660289717   12.32961162186290
H        -0.80582402641323    2.59807391801309   13.00196125528550
C         1.80950169453349    6.45078603699978   12.82038167576662
H         2.85593441960252    6.50008971595626   12.52371037242208
H         1.72922528974967    6.68529326119263   13.88010051741767
H         1.25344237213023    7.20386828250723   12.26680148143954
C         2.05548163671758    4.00998953853975   13.32900142789725
H         1.66270369192381    3.00903097484837   13.16358031042560
H         2.01134380732795    4.23042800362895   14.39343250813332
H         3.09808643471555    4.02934905208883   13.01454078513877
C        -0.66433659505849    3.07983436971040   10.91953871244078
H        -1.15004781043024    2.16947834001413   10.56957717166055
H         0.40921459864903    2.91258485384142   10.89181398320539
H        -0.92095177512762    3.88300639702198   10.23109715753126
C        -2.67965917548658    3.41251118872058   12.36067670842287
H        -3.07104016835084    4.08714837508891   11.59951494365649
H        -3.04102522316454    3.74494088690683   13.33183682578690
H        -3.07932924659354    2.41626310210930   12.17913863974741

