110
CSD_code = UTOYAE | q = 0 | S = 0 | Stoichiometry = C40H63FeOP3Si2 | MND = 5
Fe        2.31471800278021   13.40075639379781    1.44323286222021
Si        1.87978130675290   14.32912384575563    3.42891039162479
P         0.10732761185831   13.41364283105228    1.35678135901928
P         3.27445489683511   11.90802242417831    2.75714979845216
P         3.35394771953244   15.32958160934310    1.17233579278936
Si        3.28724063759847   11.50424413513452   -2.59027844110108
C         1.51355991204494   12.10220984631176    6.99846657425570
H         1.11017143283809   12.20221760335380    7.99636310313283
C         3.27017036593630   10.12277751391569    2.17328022913328
H         3.52954191700582    9.46778651490170    3.01143981944887
C         3.10582302106837   15.73801613729217    3.83291539812077
C         1.31078033307983   17.21643762246855    1.29953822422291
H         1.60944495850442   17.52506868440883    2.30067153551968
H         0.66023553500514   16.35151946251812    1.39439621036641
H         0.74450714074241   18.02965616670137    0.84563724156836
C         2.55406101968175   11.83657687309051    4.44000720454143
C         3.90179435628450   16.09922561747468    2.74207032791125
C        -2.48293906209905   12.15059233653215    1.82809713821550
H        -2.96737555600661   11.24570146965626    2.19601333263896
H        -2.79792632721798   12.29697337990788    0.79872133943925
H        -2.83840055304884   12.98496365953634    2.42828802398575
C         5.31656802819833   13.32365377093355    4.01407967434332
H         4.75995645636943   13.36611582227540    4.94948342144938
H         4.98718957118857   14.14880813921356    3.38898940193961
H         6.37441693959147   13.45855801684838    4.23928917095129
C         0.12289540508612   15.07742707854388    3.48771374381745
C         3.39533819041899   18.11818150845101    0.30410377461950
H         2.79284813917272   18.91087688779559   -0.14038929503234
H         4.25788931700500   17.96193758134660   -0.33777334505526
H         3.73638412996132   18.46606051741711    1.27642457841704
C        -0.36006298954031   15.99450275380758    4.40111952278219
H         0.25326763650643   16.28130286763061    5.24247712354739
C         2.62290224171257   12.69840091902764   -0.05882509631445
C         0.00922260470426   14.75924142497431   -1.07153156380724
H         1.08599240960330   14.58229783589069   -1.06809483104959
H        -0.18670741794752   15.71285846710082   -0.58689664496610
H        -0.33635823332255   14.82095488141013   -2.10349717558906
C         5.77742602771557   14.16127239806695    0.48759767857082
H         5.18472946959684   13.24461710088636    0.47945774455181
H         6.18061529427169   14.30469490152259    1.48739618691188
H         6.61133258918843   14.05180875944853   -0.20599290622810
C         2.56067680158193   10.75236271633289    5.30814521159317
H         2.94350883669768    9.78939119451003    5.00158550896806
C        -1.61100187376233   16.56488056354673    4.23018461295189
H        -1.98438670104773   17.28365566827349    4.94604149260735
C        -0.97175489414084   11.98859818088189    1.97404891562895
H        -0.64623113835097   11.12226365565840    1.38397939523254
C        -0.68954192569602   13.62818394341574   -0.33124500193918
H        -1.74309113257597   13.89517937308720   -0.19687360828508
C         1.48534027672937   13.17595010795970    6.12334013214362
H         1.04315964866888   14.11176076516164    6.43170335149455
C         2.03723534424126   10.88983221487937    6.58377310949369
H         2.03674601796128   10.04248576074913    7.25548191218626
C        -0.66157980377376   14.71907870172542    2.38775112698496
C         1.99734399332902   13.05270401038953    4.84611828729191
C         3.34907987709485   16.30029058170682    5.07115677460469
H         2.74255275515237   16.00978804244256    5.91617464233703
C         4.37886481390198   17.21179428694048    5.23914473748388
H         4.56724560223826   17.64800522493446    6.21009072694081
C        -2.37396134225650   16.23093632147995    3.12460223028265
H        -3.34011578573724   16.69276493335208    2.97475066375603
C         5.18711550559766   11.37921546197286   -2.59225214691955
H         5.65157432642052   12.32831982562085   -2.33876190970972
H         5.55103270521659   11.08750602211039   -3.57220799614257
H         5.54499013682596   10.64143318654576   -1.87897723633448
C         2.52729066899567   16.87095033166919    0.45274717778641
H         2.17914105461961   16.55772594749682   -0.53985579167838
C         5.08346757994066   11.99794399205799    3.30382252991188
H         5.65440811851040   12.00395499730594    2.36657082015363
C        -1.90592163945291   15.30801022151569    2.20302391074175
H        -2.51278731004176   15.08094316192160    1.33819934499240
C         4.49200776955286   15.23178584838386   -1.37664587598855
H         5.35800109998658   14.97411977088076   -1.98696300723074
H         4.08486487710734   16.16710177029360   -1.75311095430399
H         3.73988173115046   14.45678546177682   -1.50222615920380
C         2.46082668440397    9.79171097154643   -2.66056831035402
H         2.72023528766296    9.18341984528061   -1.79825924177956
H         2.77189983463381    9.25129319064650   -3.54864469903791
H         1.37700611635983    9.87017255186772   -2.68865267330011
C         4.29402369153471    9.94792237920675    1.05425466829278
H         4.12387906108165    9.00769032396656    0.52919767312412
H         5.31330187554759    9.93968776131519    1.43304001958925
H         4.20108269929314   10.76269213030197    0.34008131613905
C         4.89174746652067   15.33384621677259    0.09343348255478
H         5.44499903818817   16.26437506553830    0.25723283992604
C         5.59740204317827   10.86610649324297    4.19037760121226
H         6.65190470145887   11.04290269329901    4.40424288543018
H         5.51650859412013    9.88899235483617    3.72223523974294
H         5.06478087596154   10.84943825220951    5.13840410859839
C        -0.59606022102958   12.32860365896659   -1.12843814746241
H        -0.81718703975142   12.51633543535872   -2.17948705681885
H        -1.29737363211444   11.57975854657944   -0.76830709528474
H         0.40745364196404   11.91735494256469   -1.05877563400515
C         4.94964309278893   16.99447082945506    2.91471515762138
H         5.60704800142383   17.25470088140177    2.09745040551361
C         5.18499228002312   17.54502790686261    4.16439336110046
H         6.00565751469147   18.23634023996735    4.29776144651826
C         2.64991577446561   12.65547387277442   -3.96501520334915
H         1.58666469718742   12.85410203443787   -3.85787154092908
H         2.80255111674762   12.20728951191506   -4.94149154048137
H         3.16184494385925   13.61428857359403   -3.96214303364692
C        -0.64483284054244   11.72201640701285    3.43618355866813
H        -0.94306121789907   12.56350038213505    4.06041828207710
H         0.42387712217772   11.57260983366373    3.56144525102522
H        -1.16478983674701   10.83206973135047    3.79056586474858
C         1.87675268398386    9.76040603795068    1.68124089685677
H         1.54489170779953   10.50678695884740    0.95745178021999
H         1.17047931028458    9.74106748755029    2.50790631052979
H         1.87501215242462    8.77972611432213    1.20531360169761
O         2.80650230496814   12.17875237634924   -1.18087713193014

