71
CSD_code = UTUVEL | q = 0 | S = 0 | Stoichiometry = C23H42ClN3PRh | MND = 6
C         2.35445708496705   -1.66464315774201   15.67653908359171
C         3.73940357528963   -1.83431135409412   15.64317231365020
C         4.48873855849004   -2.30879653154677   14.41530919612237
H         3.84110617869899   -2.96623224936677   13.83310480528302
H         5.34972037921836   -2.90295474085997   14.72958931092369
C         4.98750089271731   -1.13558227917686   13.55012040490687
H         5.98611457858976   -0.84573132054607   13.88792443410552
H         5.07835222846919   -1.45012083402863   12.50444721097054
C         4.09716015232056    0.08306985037346   13.62412380975987
C         2.72092559698635    0.06833166990168   13.50182646171118
C         1.92051766896936   -1.18088074389808   13.20992079812238
H         2.53026765692598   -1.86566642366700   12.61872787684564
H         1.05369065360405   -0.91330911781460   12.60221508789427
C         1.42938632212417   -1.86812012758382   14.49786637052992
H         0.45196318578484   -1.45776241156350   14.76655967768302
H         1.29204957493580   -2.94179418443694   14.32420731989538
C         0.78699625480017    1.59951912846223   17.39482539775416
H        -0.16247824264727    1.09234196725253   17.62235258493514
H         1.11994909725598    1.28055293335531   16.39596558192856
C         0.58141350419198    3.11103482234453   17.43005210972441
H        -0.18458174252924    3.39445167060863   16.70669504185002
H         1.51813706904799    3.58941098109128   17.14175283319922
C         0.17705845281130    3.54751354789228   18.83546439400963
H         0.09394887121401    4.63491977049417   18.88351020183287
H        -0.80180875795983    3.12530483260863   19.08047438306660
C         1.20820090882136    3.05368377429974   19.84716678188384
H         2.16533621889176    3.53679149365973   19.64883793260233
H         0.89786514084277    3.30164188034678   20.86465672145638
C         1.37507802530436    1.54007444587809   19.71136505241294
H         2.10873654714792    1.15593061073170   20.42040953441560
H         0.40965190235648    1.05801875708203   19.92961492701154
C         4.81579840579578    2.06455075639023   19.61488889714983
H         5.66732440112321    1.55813744630545   20.09767477183444
H         3.94151076817678    1.93341153395018   20.24925509540594
C         5.15169346211756    3.54809764824657   19.45837412043439
H         5.32270583589879    3.99497466444280   20.44018116805966
H         4.30937371742874    4.05471983689459   18.98450463094446
C         6.38291217870162    3.70188484908619   18.57084741889407
H         6.61075437771020    4.75872832869483   18.42035893749803
H         7.24465599280031    3.23817450339170   19.05996064666709
C         6.12529494387530    3.02268714166630   17.22951180175638
H         5.31384637456045    3.52938602291019   16.70699011429545
H         7.01794227131530    3.06028718253231   16.60266702878588
C         5.71897862353798    1.56794149126656   17.44950315523455
H         5.46795596949092    1.09103631037784   16.48869730851739
H         6.56422826653284    1.02011437154037   17.89683058416598
C         4.61676862242060   -1.30388105788007   19.39263057835174
H         5.43084346681397   -0.64676186330981   19.08796719400334
H         4.71331670332502   -2.24838419419049   18.83402208364238
C         4.70140970266507   -1.61311887586900   20.88756634928733
H         4.62610824465560   -0.67951259103118   21.44793565465950
H         5.66315143950066   -2.07595124689772   21.11579278322098
C         3.55593777354727   -2.54191636838321   21.28187426839570
H         3.68326516532301   -3.50424422262830   20.77956013588737
H         3.56576473119675   -2.72156515416735   22.35857469331711
C         2.22480861780309   -1.92453265159983   20.86044749208423
H         1.40509356194107   -2.61811698166893   21.05611517943521
H         2.04719914056765   -1.01443125945337   21.43550932368199
C         2.26024140963120   -1.57980231788289   19.37026068635919
H         2.39206857477078   -2.51295099262676   18.80021019041769
H         1.32282501143412   -1.11557341173203   19.06113128285807
P         3.24165368813573    0.53405057040664   17.88424566684867
Cl        3.31574127624791    2.49846617602893   15.42257678936377
Rh        3.25534359316251    0.24029980162837   15.60657458489378
N         1.78071516691785    1.18839311032455   18.36716223551858
N         4.55922280098843    1.48249120174938   18.31594421315362
N         3.34989756348691   -0.66169318855040   19.11261359709274
H         1.85103178171294   -1.80163083642756   16.63385330463377
H         4.23453278080013   -2.07146319880874   16.58376818053083
H         4.61463215215731    1.02197290393810   13.42499062242229
H         2.22889390407170    1.00463790128394   13.24022959021213

