77
CSD_code = UVADOM | q = 0 | S = 0 | Stoichiometry = C22H50BNP2Pd | MND = 4
Pd        0.83700679603493    6.63347692566388   16.51219744173637
P         1.55664091553141    6.97915111826828   18.65767691195878
P        -1.34942989533478    6.20430125847917   17.37508032893968
N         1.18218673084045    6.47893278108876   14.47545916362593
B         0.38462950119312    6.53566708648509   13.17942521849383
C         2.22334777576580    6.58663272569805   15.07217213849581
C         3.68413876030777    6.66719835109560   14.89064888154128
H         4.14594352008952    5.72439500604281   15.18900581530257
H         4.10836311073509    7.46742452628052   15.49772804389041
H         3.90226889223682    6.85209240444363   13.83821800271108
C        -0.76171201521896    7.70657958791528   13.37967584527721
H        -1.02410703490208    8.12529434506611   12.40629694303007
H        -1.67798322879734    7.25830084746905   13.77535217548337
C        -0.36194554066279    8.86056613776191   14.30189644775026
H        -1.14092596745055    9.62387706180551   14.35095208477662
H         0.55355385167399    9.33522489858284   13.94732329696838
H        -0.19337970299014    8.49312489808652   15.33293718698183
C        -0.32613635238806    5.06505357066332   13.01458004951572
H        -0.98360054895376    4.89410082469596   13.87387248187175
H        -0.96948640973127    5.05886773774352   12.13222536095501
C         0.64488527379130    3.88921809420965   12.92140107312975
H         0.11650475122912    2.93617282783365   12.85843105232827
H         1.29348899015811    3.85650724525973   13.79832630448253
H         1.27633941835549    3.98140685360715   12.04069133596688
C         1.48950036582066    6.90190229439014   12.01481757849544
H         1.90397041489066    7.90017167666186   12.19308166828380
H         2.33382480592070    6.20593494978604   12.05372716766287
C         0.92458727403377    6.86912954566339   10.59703656930940
H         1.68479152763209    7.13911125874692    9.86187155648412
H         0.09606435658007    7.56660639285092   10.49746513053207
H         0.55781536688087    5.87441030365528   10.35599718264753
C         0.05956973343698    6.87942738602460   19.75122060915098
H         0.34861925533904    6.57937000217631   20.76332193826699
H        -0.35599575179004    7.88860137200581   19.79852576930697
C        -0.99567424956676    5.92516474689805   19.19069553978761
H        -1.92065124583060    6.00898275721487   19.76857302289206
H        -0.63053085160639    4.89992064218798   19.27928860767713
C         2.77443616538488    5.85616014391818   19.51340238895152
H         2.73804941341430    6.00644623253839   20.59817570956920
C         2.35776820279901    4.42913022320188   19.16410303812401
H         3.12493175691830    3.71435383527829   19.45749876103487
H         2.20487213426340    4.35419803999488   18.08073524827876
H         1.43228038586385    4.15761836592949   19.66772176325868
C         4.17983920954403    6.13099119541659   18.98933003053095
H         4.86671778175534    5.35223911706714   19.31713047235493
H         4.56004441436432    7.08630973370490   19.34376493158430
H         4.16567732802752    6.13965966072064   17.89872235122148
C         2.18236384326722    8.70392161302561   18.97027394983606
H         3.19983155025659    8.71214526071013   18.55823408676383
C         1.33213974933938    9.64271843299552   18.11465345331433
H         1.78173771283495   10.63215211226068   18.05468282926799
H         0.33030519610882    9.74875885409248   18.52830278398746
H         1.24798750138364    9.23376443358824   17.09614147818583
C         2.23804557828851    9.13223069858247   20.43171861120440
H         2.68851181941244   10.12082281288527   20.50880344713747
H         2.83736665450814    8.44040853100949   21.01979248667721
H         1.24297116144591    9.18336486040238   20.86683211791459
C        -1.83619827810769    4.48537331725774   16.83700842624576
H        -2.23462796065749    4.62625671472847   15.82432032984809
C        -0.55776676082380    3.65284207452468   16.71661429948993
H        -0.72605464154817    2.77768451555174   16.09181192508097
H        -0.21887432208406    3.31006748897848   17.69372751840663
H         0.24090831816141    4.25719643981570   16.25125604079189
C        -2.88806201616478    3.78243277812239   17.68816005002018
H        -3.10570071799447    2.80411993846594   17.26163061402472
H        -3.81608543174631    4.34798383618759   17.71988820796842
H        -2.53905540081660    3.63280747766582   18.70758801110574
C        -2.97903535255790    7.11351975507354   17.48900702398188
H        -3.61156064225427    6.61660348604029   18.23427339327732
C        -2.69180935422012    8.54384269940482   17.93939973478021
H        -3.60033044742353    9.14362432278699   17.91099484320930
H        -1.95715704304762    8.99958682430819   17.27479704590428
H        -2.30533783202090    8.56614306300695   18.95673165335453
C        -3.68129988981627    7.12084834994302   16.13698399205560
H        -4.57051931594140    7.74858479711621   16.17713407940126
H        -3.98716891498669    6.12026184062834   15.84038061858742
H        -3.01472414840745    7.51952568054806   15.37447632759383

