93
CSD_code = UVADEC | q = 0 | S = 0 | Stoichiometry = C37H51N3NiO | MND = 4
Ni        8.54739723481581    3.82347106305728   10.39321818551126
N         8.26002015525781    4.59819740747179    8.64099882024190
C         7.17880767201728    4.89645610692993    6.45689504625871
H         8.17099493718350    4.93218411796576    6.01404924291902
H         6.78166483030561    5.91027167820447    6.46850646998720
H         6.53082487280623    4.28795683742529    5.83085523384416
O         6.86545310107231    2.86108324949370   10.31476194086337
C         7.21408217463554    4.34112497405294    7.86480071954963
N         5.28131414231106    1.47994286318131   11.82314187560613
N         8.83462755641168    2.90359159948357   12.02878210222735
C         6.08691477707065    3.60756284539283    8.22981224426216
H         5.27867489457946    3.54998845158874    7.51745325925459
C         4.66555691967339    2.26873719735421    9.69443169024956
H         3.91880963143322    2.33615109475881    8.92032057120241
C         5.92515687411954    2.92746871681106    9.44023359066855
C         5.18910832673883    0.81021943204964   13.05244610517514
C         9.28657285734463    5.38625924519403    8.05825108740448
C         3.02172603571400    0.93948136434779   11.01696805553075
H         2.72966802982111    0.42187613210145   10.10546614047572
H         2.26110841935363    1.68977961755021   11.22935215811487
H         3.04853700549121    0.22795310160557   11.83962035060102
C         4.36232452876389    1.58998846875893   10.83487504954740
C         5.94641971626051   -0.35840371188719   13.23920427450528
C         9.14913724803461    6.77980562369314    7.97294162411193
C         5.88934724079020   -0.99759142947776   14.46733577814739
H         6.44595322817437   -1.90628190495097   14.63149100775223
C        10.16511747146984    7.51311786740620    7.37777851393960
H        10.08449704475805    8.58750652706601    7.31622124993123
C         5.11502894217648   -0.49093205650897   15.49597475567749
H         5.08034642833974   -1.00328245687311   16.44635191115032
C        11.28048264518437    6.88935592162658    6.85208557270590
H        12.05092987290298    7.47487078181655    6.37153506856113
C         4.38961791634751    0.66833578204705   15.30921168518895
H         3.79859179934540    1.06022770726873   16.12323432686486
C        11.41860347926946    5.51765598514301    6.95668129590654
H        12.30156173688116    5.04507246461640    6.55539815499510
C         4.41430901206350    1.33760142263893   14.09296291812622
C        10.44187576141133    4.75091625647773    7.57209603477163
C         6.75935494083906   -0.91027432017684   12.08843085647013
H         7.21797515600419   -0.06713488670611   11.55901053233781
C         7.95124333443457    7.47928946830065    8.57724965595599
H         7.15225645437824    6.74618960046738    8.71757552930698
C         5.83485845172761   -1.64010297940573   11.10679692516406
H         5.10821510028074   -0.95870203409875   10.67534022510898
H         5.30189383883565   -2.44030725003437   11.61715312018615
H         6.41823916470982   -2.07316818219417   10.29726115894297
C         8.32175063375029    8.01680674430322    9.96254868447259
H         9.17880956217230    8.68407252314237    9.89921787086035
H         8.57034830697702    7.18857157913224   10.62133969459507
H         7.48387951314431    8.56359652996707   10.39083315631806
C         7.87893474067781   -1.85345220675630   12.52611779702925
H         8.53795171253021   -2.05026516373649   11.68304240698991
H         7.47705519931750   -2.80614542740599   12.86370374777869
H         8.46845758525645   -1.41588473473144   13.32757563327657
C         7.41752604593322    8.60612881066711    7.69080303357962
H         8.08640717631817    9.46320668786726    7.69883829136195
H         6.44728758438077    8.93684159372840    8.05663945534599
H         7.30236731140353    8.27193924813543    6.66142352256654
C         3.64448471129743    2.62841180352105   13.92834880768452
H         3.73002994434504    2.95931335265272   12.89041193903826
C        10.60319446344508    3.25802850836569    7.75197295688290
H        10.00447021908411    2.97360351165494    8.64097363832590
C        10.05218719755226    2.49751195603070    6.54334799289518
H        10.54392054383446    2.82998891790373    5.63039725127451
H         8.98251003081387    2.65834688681981    6.44145820836048
H        10.22609796233901    1.42942141162401    6.65983613822207
C        12.05199844454862    2.85154442194033    8.01793657834269
H        12.09066622307205    1.81465753926861    8.34734242623707
H        12.48617432772227    3.47831930501414    8.79293033806544
H        12.65818242582765    2.93618035244023    7.11889255497372
C        10.14457153729369    4.86353229435641   10.85055908679900
H        11.01533919930949    4.20501228064607   10.95094725999372
H         9.97656202361518    5.32817284830109   11.83186234742602
H        10.41876057273256    5.65575157058728   10.15449706165150
C         2.16105547819074    2.44094411229948   14.25528603541264
H         1.60640333558503    3.34162915337533   14.00044650991658
H         2.01729797460791    2.24437380323095   15.31486725741042
H         1.74349181798258    1.60759675346126   13.69535544959615
C         4.24517501807740    3.72349893648967   14.81446195634541
H         5.27586761631546    3.92237188213933   14.53038145696280
H         4.22523344663160    3.43169851285123   15.86216766859005
H         3.67715202965866    4.64472753554205   14.70403920542690
C         9.69073033859932    1.89055953248668   12.14128767990317
H        10.37336796700942    1.73475969809302   11.31577523744220
C         9.73609870303352    1.06726583554528   13.25303820284987
H        10.45848728150940    0.26722382809549   13.29821196065228
C         8.84807808642783    1.29167326583116   14.29264612143518
H         8.85155694104530    0.66869086650889   15.17420060224483
C         7.95241222452560    2.34151333556829   14.17360465757665
H         7.24044487783382    2.54923037750228   14.95623810302451
C         7.98493550256522    3.12328173732519   13.03195807503267
H         7.30675950237316    3.96026829796018   12.91481904803862
H         6.18072569804613    1.89006962972591   11.53375477658393

