83
CSD_code = UVAGOP | q = 0 | S = 0 | Stoichiometry = C35H41FeN3O2S | MND = 5
Fe       12.01192553682496   11.00009017457315    5.17445875153939
S        10.28509200482380    9.72814077557656    4.63222482907405
O        12.85819163905553   11.05862968860458    2.40844918799399
O        14.78679302133343   11.71294002235422    5.59735715880525
N        11.83744509513640   10.19974649509077    6.89185670746904
H        12.39836037462378   10.40866543737093    7.71532201344855
N        11.21223612206960   13.84788585478811    4.54747226183149
N        10.82855790412173   13.38785635897681    6.60312671137594
C        12.45650284204569   11.12175299925521    3.48673819468630
C        13.67275258149321   11.44630091712752    5.46824949612376
C        10.00086632344205    8.93246484787941    6.14458974371812
C         8.99589458983980    7.99354637038668    6.35226917029618
H         8.34803517273191    7.72587697890761    5.53145148761388
C         8.85271077237720    7.41691093923088    7.59591410798808
H         8.08118841381803    6.68031662567695    7.76331779609951
C         9.70129368292599    7.78134250926445    8.64367043686680
H         9.57393719702694    7.32370790410013    9.61426957584383
C        10.69583241665332    8.70930062267057    8.45409328798787
H        11.36008589637595    8.98644242948770    9.26215102283564
C        10.87635915136477    9.30050046564346    7.19053681868456
C         8.16663683543018   13.97609598355359    2.79999799343980
H         8.49947324673921   14.79717641024109    3.43202844944602
H         7.20913239087951   13.62117601869624    3.17392494266550
H         8.02479468818981   14.35597463123273    1.79024599968098
C         9.18762460523408   12.83377203282746    2.80011188148974
H         9.33152377281108   12.49018884291617    3.82913779592794
C         8.66153015625529   11.64038896712538    2.00532127214554
H         8.32461258040925   11.93364753191649    1.01423554825849
H         7.82023238397750   11.19647339014923    2.53153974392788
H         9.43620535949711   10.88423909783767    1.91163609840404
C        10.51331781872262   13.33500826536343    2.27867247873277
C        10.77823073988927   13.38704166221490    0.91768334910109
H        10.03357975038227   13.05036420527344    0.21490127836759
C        11.98680916209802   13.86500000432034    0.44819861001402
H        12.17372222788759   13.90090387444835   -0.61474125858908
C        12.96102173870565   14.28675171987715    1.33144661110419
H        13.90414695272001   14.64536658124427    0.95089351978300
C        12.74075161147999   14.24983267770608    2.70158550442806
C        11.50405462264391   13.78743301698544    3.15538005408038
C        13.81554571585998   14.69524848262569    3.66528371105901
H        13.54347718779517   14.35694838505201    4.67127963513906
C        15.16680562342562   14.06739598316521    3.31922787412980
H        15.05772773839792   12.99645531110942    3.16913195416670
H        15.86931453882073   14.23022209670368    4.13312951482893
H        15.58655078945434   14.50373188772673    2.41676780327589
C        13.92412167351044   16.22286774805468    3.67493973237973
H        14.16745791925281   16.59164654904664    2.68116163276610
H        14.70622324194708   16.53808936303035    4.36182828266180
H        12.98738701622682   16.67809210713444    3.98886071045900
C        10.77569993889170   15.00620032616456    5.13604629163753
H        10.66977779844666   15.91899410583408    4.58683170129208
C        10.53891428075352   14.71813309333600    6.43334686302562
H        10.20393219749497   15.33533071765971    7.24181893926660
C        11.26097580313114   12.83354899675441    5.44430799065104
C        10.65543516317290   12.74852995934541    7.86348024035023
C         9.42501153406429   12.15231275537757    8.15937796787950
C         9.25461731197480   11.61800437903825    9.42919171535877
H         8.32105672865877   11.15002776228028    9.69355964536687
C        10.26873037011084   11.67674027186415   10.36648636827619
H        10.11317070088984   11.25983001006089   11.35054938139087
C        11.48086180804857   12.25879319679333   10.05025354088225
H        12.26351393274014   12.29325516197831   10.79196210704309
C        11.69916478749556   12.80026766159955    8.79026093362724
C        13.01843376607618   13.45183453955318    8.44332454512352
H        13.08364058969789   13.54759957776450    7.35402050307015
C        14.21747424676883   12.61813474060072    8.89637569170664
H        14.29535091071688   12.58435765216454    9.98013397252642
H        15.13358244337736   13.05472942959661    8.50543957562105
H        14.14357295615219   11.60114775703078    8.51855711304403
C        13.08414119437267   14.85083956421980    9.06433832931125
H        12.27440171861498   15.47764685648000    8.69753323089454
H        14.02838002855304   15.32829619192017    8.81293308642858
H        13.00531020572678   14.78861352548798   10.14756902303298
C         8.31744518541872   12.11209814526912    7.13037710314377
H         8.78001358215508   11.98851066030706    6.14407821773507
C         7.35026707567205   10.94713858407528    7.33617637457361
H         7.88791930435783   10.01808009887776    7.49921383124186
H         6.73303839158304   10.83008130802537    6.44832199904930
H         6.68979738341671   11.12938624501235    8.18120734813377
C         7.52364930723467   13.42437511367519    7.14516357478111
H         7.12733303987949   13.60939830033829    8.14206267157332
H         6.68976119669203   13.35674191800001    6.45010844526213
H         8.13815229092352   14.27197014896705    6.85436219415693

