67
CSD_code = UVAGIJ | q = 0 | S = 0 | Stoichiometry = C29H31FeN3O2S | MND = 5
Fe        4.03474127113627    4.43773738825359   12.85782981905700
S         6.17161306095706    4.82180362202394   12.39157580620812
O         3.64328226130164    7.01322478233047   14.11304296323367
O         1.48475200354162    4.08060924094911   14.18400260576228
N         4.58948018285783    2.63262292583387   13.05355388698247
N         3.52154984814494    3.81238107578817    9.98496356527217
N         2.72860139156827    5.75035683054798   10.49245797207171
C         3.79625430160406    6.04728194297903   13.50389028450890
C         2.49407533995121    4.16764008477967   13.63147381678699
C         5.85689231032889    2.21793924767801   12.82949494245246
C         6.29831589774132    0.88849528720835   12.94323750172629
H         5.59567888873471    0.12626127167644   13.25318993458592
C         7.60782211578743    0.57297168104665   12.67406684095651
H         7.94533195566863   -0.44906504283494   12.77584007750940
C         8.51297996710574    1.55707848871901   12.27426133595172
H         9.53710723786576    1.28786229031016   12.06130472841761
C         8.10941208105209    2.86966137021493   12.16386420218902
H         8.79991224967416    3.64693469611703   11.87262626285380
C         6.79242378190215    3.20631760611997   12.45311301594144
C         4.10220481431878    2.51735794827487   10.03727904664660
C         3.33101837684296    1.44634559764659   10.49115695581282
C         3.88722526833296    0.17661529656856   10.48694097875973
H         3.29698340197360   -0.65693479368282   10.84185672057675
C         5.18094218890798   -0.04498049775894   10.03869989975770
C         5.92487554935194    1.03678053872507    9.59120828319917
H         6.93807534107722    0.87698773679145    9.25220418713295
C         5.40639310827927    2.32258211500094    9.58111537725479
C         6.23593732753890    3.46484831927407    9.07977037941199
H         7.29168642755533    3.24796965514224    9.21913971211820
H         5.99990712321121    4.38249752566463    9.61416442082200
H         6.06241128414464    3.62451067974896    8.01411745902719
C         1.93061128789428    1.67292864280891   10.97666211879098
H         1.51508984581815    0.75766760249466   11.39000803175876
H         1.28644999385679    2.00178329773680   10.16089730589999
H         1.92050825428400    2.44571231173515   11.74629135614022
C         5.77841406970402   -1.41806490090364   10.03873046256920
H         5.07826313151218   -2.15080004679842   10.43165592158529
H         6.67928868903554   -1.43051230713297   10.64981959344345
H         6.05805267027971   -1.71038816314550    9.02732040987801
C         2.95841714084597    4.26632698863477    8.71430268238834
H         2.20646066264362    3.55433106284471    8.36041593051276
H         3.74357302142392    4.33773124355330    7.95629197579071
C         2.36643599453415    5.62413779467153    9.08275064559380
H         2.79412131194736    6.44779355062266    8.50429948202838
H         1.27806931052143    5.65916662356838    8.97067490105289
C         3.37001565573476    4.68806400538133   10.98335680357074
C         2.39287887246008    6.94770026610091   11.17811029167487
C         3.31468374753384    7.99632954007014   11.20707167483745
C         2.95800703969796    9.17355207744959   11.84569338284389
H         3.66952727560124    9.98570648388395   11.88380788390132
C         1.71897932428381    9.32405427472199   12.45047882999668
C         0.81993821300216    8.26827491188270   12.40119135798211
H        -0.14660833700178    8.37217989251027   12.87330519331059
C         1.13566808862002    7.07600092344317   11.76828203270768
C         0.13391724407192    5.96139770302910   11.71925638600310
H        -0.44224549089945    5.93286711137218   12.64052940139974
H         0.62477094979101    5.00018218028488   11.58895635451153
H        -0.56178416390614    6.11477398331616   10.89292559617794
C         1.34443384759825   10.59915100695565   13.14146098250959
H         2.20441440249448   11.25611112438732   13.23987417526401
H         0.94719171528430   10.39055496480602   14.13294302619637
H         0.57261779553772   11.12135841091660   12.57561225025136
C         4.67081645010800    7.83426412668509   10.59413956848946
H         4.60079808833762    7.62696592976028    9.52709880719126
H         5.19417583564911    7.00225385655361   11.06527032358601
H         5.26123450965436    8.73553979963381   10.73136462709674
H         3.99282719358875    1.84090881502628   13.28950725007548

