76
CSD_code = UVAGEF | q = 0 | S = 0 | Stoichiometry = C30H38FeI2N2O3 | MND = 6
I        15.69963299897258    1.68437405304445   16.49110132333164
I        18.93080660091352    1.38530815996428   14.47711361424579
Fe       18.11475228713076    2.51381589274161   16.70398448702849
O        20.89274373353546    3.30212144350025   16.73345801145882
C        19.78585313288378    3.02698913644185   16.77287519531133
O        17.37964018389822    4.58782726118522   14.78045715836457
O        18.78039664546369   -0.15102371394952   17.69890154673575
N        17.14512499641324    4.66915274832296   18.53042823776313
N        17.61917772111027    2.86023880092662   19.62661675365760
C        17.64802107417387    3.87328471816291   15.62438463144010
C        18.51244960932914    0.92409607190257   17.43960440475492
C        16.99985801144986    5.69577653539393   17.54874145028821
C        18.11352962991021    6.46802610845633   17.18945520349239
C        17.93493062850647    7.50863877453849   16.28823565445909
H        18.78044087709803    8.11086313922350   15.99737059420732
C        16.69048160004300    7.78694919745802   15.75953214329378
H        16.57269982152046    8.59428000463309   15.05281310454314
C        15.59751253209500    7.03835597552158   16.14443599085129
H        14.62641864021999    7.26927993297466   15.73779755373308
C        15.72470146610656    5.99161359803445   17.04844836531070
C        14.48586160051630    5.23259830868081   17.45942157186420
H        14.77937808575181    4.33110924513734   18.00414292036253
C        13.66410858798342    4.79703323557456   16.24312993538855
H        14.30225192257973    4.37775256995668   15.47144682233498
H        13.11390836859595    5.63246452409506   15.81879108338060
H        12.95186868672863    4.03123779912286   16.53737364746422
C        13.61535426298476    6.10321604180679   18.37302698429648
H        12.75417691288140    5.53280026107144   18.71220235078822
H        13.25789407719984    6.97695746978122   17.83328921282232
H        14.16434327169585    6.45534182817778   19.24514219215573
C        19.48830960991697    6.23066391775120   17.76920205545204
H        19.50774467969065    5.24003958294587   18.23757373254232
C        20.57403764976702    6.27183459032435   16.69067992398372
H        20.78575517700863    7.29387646573672   16.38783950478736
H        20.27065220597635    5.71170028627882   15.80890235175219
H        21.49649431761098    5.84052563998405   17.07255291583038
C        19.79463198507321    7.28130296840428   18.84227033179010
H        19.06187801859607    7.25651828918977   19.64644903144602
H        19.78090666211532    8.27779394398801   18.40705641221111
H        20.77966854028869    7.10337611548296   19.26806275342771
C        16.85089876455419    5.04246631637810   19.91340024510481
H        15.82019797984651    5.38874788638298   20.00091208186355
H        17.51530595876752    5.85458100235135   20.22576090831234
C        17.10204214394604    3.74560134425208   20.66989161287335
H        17.83544107056101    3.84874053840724   21.47332542870959
H        16.18519266690010    3.32718911934352   21.09232101389237
C        17.61743477178765    3.42532032681336   18.41631668904789
C        18.16068460698883    1.61086510598146   20.05558887765008
C        17.29833104887890    0.54905371527298   20.35762212493464
C        17.84989274469443   -0.63269721202548   20.83593695543388
H        17.20233343163560   -1.46506192480898   21.05837684242359
C        19.20940839977912   -0.75866296993761   21.03228562116131
H        19.62017364735769   -1.68611682243435   21.40137903035501
C        20.04440663443307    0.30831092750950   20.76669468408597
H        21.10315417112101    0.20830230316272   20.94294480014904
C        19.54151270137509    1.50682919755354   20.27976810031859
C        20.49098105920632    2.65894749717807   20.04521805952795
H        19.99930141433013    3.39491994665745   19.39883417551907
C        20.83542483601888    3.33655212651538   21.37625284861718
H        21.30799191980755    2.62427898132916   22.04867880299652
H        19.94715681348003    3.72636626304583   21.86895746431518
H        21.52345822593378    4.16187241645669   21.20675654133627
C        21.78135131960357    2.20567560482263   19.35757109499211
H        21.56961718319974    1.51724472638514   18.54253040898881
H        22.44495043711032    1.70843950128117   20.06018368394917
H        22.31024564374767    3.06579504235250   18.95344022665435
C        15.79960637402695    0.64032190661599   20.20214812211276
H        15.55039222281578    1.53864118607502   19.63128983532421
C        15.23609512733882   -0.56336831485721   19.44231415292992
H        15.20906048758682   -1.45016490622336   20.06968071778984
H        15.83283158094391   -0.78204836604261   18.56207465353668
H        14.22423052234805   -0.34581765697263   19.11188817104875
C        15.13728213123539    0.72807869843315   21.58198947279271
H        15.52864021878295    1.55865942196260   22.16745921117862
H        15.31454518093501   -0.18567251774678   22.14433286893156
H        14.06392974518991    0.85769866656419   21.46716331279134

