143
CSD_code = UVAGOO | q = 0 | S = 0 | Stoichiometry = C76H62ClFeN3 | MND = 4
Fe        5.00702972751902    6.58605257561821    2.85300138693255
Cl        4.84673458456038    8.18237846752142    1.50584064525310
N         4.52638758752785    5.32057160447568    1.27293555894653
N         6.97844885276969    6.38642080558737    2.10682673376667
N         4.56335238414578    6.54753369201552    4.35040001474319
C         3.38482571508700    4.63212390750630    1.18438128214698
C         4.12177698950081    6.60749691842723    5.61307913829869
C         3.28233915306764    4.00387465065145   -0.07715961182021
H         2.46535901688048    3.38513016346466   -0.39683368002376
C         3.42936139481330    5.52860590139392    6.19046061654342
H         3.24594102475034    4.65014634777747    5.58935615303771
C         4.40877444053313    4.34853133310159   -0.78141467982509
H         4.67708370628384    4.05985854337336   -1.77938714785867
C         2.99610087034535    5.60139050520568    7.49414359509112
H         2.47002982080512    4.75074643477964    7.90124741456305
C         5.20060625926805    5.15103973011898    0.08006742764976
C         3.21896615443952    6.73069591504992    8.28474279342594
C         6.50099896770237    5.59751328398521   -0.16274323429182
C         3.90259919752786    7.79693394905539    7.70406171908589
H         4.10557185490267    8.69113236638006    8.27027492254521
C         7.33431983206689    6.18093232924264    0.79063248464677
C         4.34867016832295    7.74677879771383    6.40099720464432
H         4.88661240564700    8.57497251142169    5.96314501667817
C         8.67665805181961    6.61059250106913    0.60936431537737
H         9.22321020758962    6.56007586779312   -0.31270844099047
C         2.72763177626419    6.74747331636187    9.72205741365876
C         9.10791978358765    7.08911274823532    1.82069688810430
H        10.07159675286356    7.49174414342379    2.06826533154221
C         1.20736018444718    6.53346860547475    9.73675577298359
H         0.71248588166159    7.30984351554267    9.15650836906900
H         0.83490963139855    6.57684058882878   10.75809095333561
H         0.94049857679884    5.56727070917349    9.31817592778967
C         8.03013570325027    6.93037819541523    2.72374518980255
C         3.41269359676469    5.61006352943698   10.49377481918537
H         3.16220824142065    4.63997879364518   10.07298443781719
H         3.09664653801418    5.62119532665783   11.53471905132204
H         4.49358777715996    5.72646958097129   10.45941447821426
C         3.03194468325957    8.06887668262413   10.43288835570825
H         4.10139232432176    8.26149107478627   10.46841176198092
H         2.66362084059429    8.02251320478175   11.45581308779517
H         2.53787826047341    8.90101194928703    9.93652012881968
C         2.45911656942859    4.46870801618773    2.31426049880428
C         1.71478555751326    5.53221039826000    2.83921050860970
C         0.84982942013474    5.30107503710820    3.90291298659519
H         0.24911474975675    6.11922291009719    4.27203043058878
C         0.69743958693766    4.03574070732444    4.45808122491005
C         1.43699200110274    2.98474536042238    3.92373415803501
H         1.35827249317181    1.99694086991531    4.35493963205820
C         2.31300082377448    3.18835805358007    2.86687358899052
C         1.76529258228328    6.88522572406127    2.25528286949913
C         1.66755806968209    7.07698978324242    0.87901584688042
H         1.58643026113518    6.22078910982278    0.22513795725059
C         1.65570522122165    8.35332788973608    0.34880524706792
H         1.58515457907575    8.48771987056302   -0.72058131248752
C         1.73691870777684    9.45596215484882    1.18151379058902
H         1.73618183778058   10.45131491039827    0.76373223804574
C         1.82601899892399    9.27762923671050    2.55121770974380
H         1.89475208393512   10.13463800513150    3.20526878018164
C         1.83606381809140    8.00312447518913    3.08677928275034
H         1.91257211029799    7.86767699601602    4.15721114203991
C        -0.23947603043109    3.81617132820581    5.56935807136908
C        -0.38631056304687    4.76887697542369    6.57573064081603
H         0.21977533742748    5.66302830884718    6.55513065273913
C        -1.28324957022851    4.56822217636299    7.60850820257798
H        -1.39133099186515    5.31705467285693    8.37984031794598
C        -2.04645750600075    3.41358385004502    7.65618912705149
H        -2.74810758267967    3.25982018904013    8.46262564493033
C        -1.90740983547629    2.45929150530168    6.66255782858999
H        -2.50374684366358    1.55886653434476    6.69102244210150
C        -1.01230949502344    2.65840896268084    5.62819901409271
H        -0.92718872185465    1.92016480402847    4.84425623389750
C         3.07628330210754    2.05005328445050    2.32206322016884
C         2.41046038629500    0.88556439087753    1.95103893949832
H         1.33825373150550    0.82526175893817    2.07422871503473
C         3.10462587789588   -0.17642566252135    1.40109109945573
H         2.57510183484465   -1.07168775026571    1.10875204925880
C         4.47389457554595   -0.08836095617921    1.21635586127266
H         5.01523022901854   -0.91338145391884    0.77693083019144
C         5.14619444104587    1.06027083589456    1.59916098864727
H         6.21521153775604    1.13308456379892    1.46315180114923
C         4.45625695845050    2.12180344032874    2.15424676544945
H         4.99040140699879    3.00708898953657    2.47084878090247
C         8.00901589434030    7.22467040144821    4.15826279831744
C         8.30721923938058    8.51079400959080    4.62618848142956
C         8.27379591358162    8.77325879523177    5.98881071092367
H         8.47455968043379    9.77905406515933    6.32858090783262
C         7.94614920080990    7.78333316346445    6.91003380060763
C         7.67092553433555    6.50478132066508    6.43604854729596
H         7.47615449639170    5.70696585735574    7.13784244138736
C         7.70827698965392    6.20913796385179    5.07944011255507
C         8.66412469599451    9.59384006470326    3.69165328319539
C         7.85392086478986    9.90393822504008    2.60406764567326
H         6.93299266541058    9.36311257238055    2.44536036783431
C         8.21209348167752   10.91787070590285    1.73487528202962
H         7.57200706476157   11.14616280163244    0.89582915176851
C         9.37993743617843   11.63364639026607    1.93875632984717
H         9.66081293698736   12.42202916920333    1.25567267613485
C        10.18665423428590   11.33757947368740    3.02479657228344
H        11.09820122946646   11.89399504847230    3.19039436447181
C         9.82927926302673   10.32715601695569    3.89856114874680
H        10.46677816077777   10.08695271627334    4.73824150993580
C         7.92942960777012    8.06835045892861    8.35184980034093
C         8.86344333429837    8.93645076041725    8.91431404092533
H         9.61263985900402    9.39434810274572    8.28546458384854
C         8.86034576481428    9.19608678059808   10.27188894366128
H         9.59390187249359    9.86886239983276   10.69189921592756
C         7.92537641299708    8.59071156662790   11.09410332290596
H         7.92332697422829    8.79080274133032   12.15535076284767
C         6.99471281401737    7.72326029283117   10.54742944970384
H         6.26856711201475    7.24486963011340   11.18940983841320
C         6.99390060495857    7.46383040587342    9.18953587272000
H         6.25139468652327    6.80266828866117    8.76670075724906
C         7.53886668249653    4.80420372887147    4.66208779563989
C         8.45704756546284    4.20041832399267    3.80594929949491
H         9.27388404945563    4.78141464217691    3.40359625484509
C         8.35144078311134    2.85764676033317    3.49426017633347
H         9.07826665548231    2.40217288556450    2.83669738138099
C         7.33150554343400    2.09331978068580    4.03505904310185
H         7.25643449551711    1.04104007977925    3.80477942380538
C         6.40956089249945    2.68435577894179    4.88206717364575
H         5.60857783413981    2.09364797406265    5.30292613073555
C         6.51577647376375    4.02607153192740    5.19864746002833
H         5.80282320770584    4.47719727077823    5.87222727832793
C         7.06029953757546    5.37662270953263   -1.51603421444765
C         6.89077044801745    6.35657821061200   -2.49384327802726
C         7.42482699944275    6.14126321274565   -3.75566306256948
H         7.29739235833236    6.89781735887818   -4.51729408342497
C         8.11660522968328    4.97808395941403   -4.06038845386626
C         8.27003120088915    4.01555236018832   -3.07187022068980
H         8.80529330062282    3.10393855596340   -3.29868836343933
C         7.75077101134874    4.19837468302794   -1.79985116631807
C         6.13803826085622    7.61028120104101   -2.17131408124621
H         5.10644307445488    7.37713411503391   -1.90895147289772
H         6.13863109010209    8.29201143402221   -3.01813890415382
H         6.57669274130786    8.11335474443013   -1.31060896668768
C         8.70805059306786    4.76951635153101   -5.42213278562501
H         9.75995144099844    5.05759621154628   -5.41970232679785
H         8.19412196567318    5.37355074969297   -6.16596067841531
H         8.64861196648703    3.72315586185984   -5.71403428486924
C         7.90699872316529    3.14880398093551   -0.74032097321461
H         8.37017388494388    3.57151259419746    0.15075291013727
H         8.51850557971809    2.32484181074177   -1.10041057982220
H         6.93039751402844    2.76087962414598   -0.44955255476176

