33
CSD_code = UVAHAC | q = 0 | S = 0 | Stoichiometry = C13H13FeN3O2S | MND = 5
Fe        4.42725967386494    5.23619005681036    8.92143681204445
S         4.09283833976862    3.99316704636972    7.13936501172760
O         3.71841016070573    3.74730285136739   11.30975135843585
O         1.74663863052226    6.33172405469268    8.80824890384814
N         6.23822874465556    4.67133968579421    8.75962782477650
N         5.77886076795224    7.89524571242048    8.79591795516144
N         4.92393795291778    7.65699936593447   10.74823778958414
C         4.02388532300367    4.37826825532121   10.39642241912567
C         2.80947480638385    5.88941744011046    8.82322064920052
C         5.66454876863517    3.27267362334117    6.95931585763273
C         5.97533264308813    2.31129559274077    6.00598677449296
H         5.20731984448376    1.97527898346617    5.32614783556597
C         7.25832634810779    1.81139910485562    5.94277432376390
H         7.51114590321430    1.06575940952727    5.20416148308210
C         8.23442171806682    2.26382546400070    6.83151434470125
H         9.23593491923623    1.86225615033752    6.77099109091308
C         7.93890945574709    3.20932172077357    7.78393488384141
H         8.69694574719413    3.55934982468130    8.47294955071749
C         6.63840700305330    3.73683614035504    7.87007283705398
C         6.16866533913383    7.68939493388757    7.42666727517889
H         7.24181129767199    7.50125197025165    7.35476934383004
H         5.92159936946563    8.57009414673567    6.83294412154925
H         5.63155264815899    6.82331015213335    7.02923334247161
C         6.06300507916982    9.03764779486868    9.49380020509588
H         6.61218678166886    9.85141715728729    9.06691718026042
C         5.52321832199449    8.88680297431134   10.72484611498890
H         5.51820571029322    9.54801421772518   11.56682277411727
C         5.07553643876880    7.02791176710582    9.56076980003856
C         4.22812262009634    7.12580947661908   11.88862312978634
H         3.22225244241747    6.81720175159495   11.60288989052291
H         4.16676834279646    7.88991192761021   12.66112245550388
H         4.75394493458070    6.25550115617869   12.28350027809971
H         6.99560392318224    4.93098009079227    9.38941638288633

