95
CSD_code = UVAKAE | q = 0 | S = 0 | Stoichiometry = C28H56N6O2S2Zn | MND = 4
C        -2.07357306561955    4.16681941475811    3.67302011367045
H        -2.50977249653109    3.60969364091853    4.49822013345981
H        -1.57375893876464    3.46508067336461    3.01073542099184
H        -2.87100397796489    4.65468514891694    3.11670272588404
Zn        1.08379875656739    6.80563717337547    8.00876563357989
S         2.85812074525981    7.09112281521996    9.50222634706720
S         0.07685289191949    4.98209949093548    6.95067334619069
C        -1.60158785559288    7.06460463603368    8.59964270700954
O        -0.49254416454357    7.62374177476214    8.82738397217049
O         1.63296216861012    8.04962163847445    6.60215604680583
N         2.99422920791484    9.26708000536832    7.97027311746860
N         3.53803920325910    8.95009785889293    5.77414835077496
C        -1.26217463104026    6.01682935936726    6.49231545383759
C         2.70044946694161    8.69346390969522    6.80295512972247
N        -1.65357523120256    6.04254530771038    5.21023849126869
N        -1.96491367204714    6.63677218166591    7.39013926244842
N         2.78288549455378    9.66959042697120   10.20520074676126
N        -2.54006634648151    7.00608488432389    9.57005569106478
C         4.81302210005457    9.60799708569447    6.01725012166717
H         4.85554987744023    9.76106685562203    7.09903663958040
C        -3.78132910865743    6.28112878849363    9.34302679914468
H        -3.69183024534276    5.86656370698992    8.33525740003272
C         2.82689010723067    8.81316389701008    9.17452646414372
C        -1.05472296662343    5.17410234718096    4.20549272178654
H        -0.26918522638982    4.61506025772638    4.72059999454459
C        -1.15461378439438    6.94887354085001   11.61928047691862
H        -1.33474316465515    5.87987830762030   11.70586090425574
H        -1.06672653988056    7.36996868955687   12.61827589233350
H        -0.21724420211448    7.09710032371118   11.09092934563762
C         2.84903535951181    9.21418851051667   11.58741365167051
H         2.88787915535626    8.12269182615779   11.54286844678448
C         2.66388481364955   11.10919176658400    9.97607375537038
H         2.58973579083704   11.55946769519877   10.96892285349051
C         3.20212184924996    8.53327716853113    4.41612968503978
H         4.01407633833339    8.89479436571782    3.77853346580462
C        -2.32066811340014    8.41346352330417    5.02416344766007
H        -2.21200131402580    8.59537585623842    6.08883475820404
H        -3.09156696984098    9.07175947678790    4.63063088901612
H        -1.37827209849477    8.64713372714643    4.53490168147876
C        -2.70600873274437    6.95692800495452    4.76829927877700
H        -2.78463364581698    6.81414213292083    3.68784321042519
C        -2.30642139725343    7.62326209738877   10.87207926270847
H        -3.22239850627849    7.46812551323542   11.44953563981580
C         3.89549720044015   11.70088645084640    9.28974183719583
H         4.80404649595981   11.35247763968619    9.77395622470677
H         3.85902163496353   12.78598305362575    9.35497135062371
H         3.92046082317659   11.41135453225377    8.24593268019541
C        -4.06867734411815    6.62734789931453    5.37813277082182
H        -4.27594674717644    5.56382081051196    5.29216925377010
H        -4.84364030586202    7.17839801527671    4.84993801517373
H        -4.08949507806512    6.90608771150831    6.42492175178833
C        -2.08869130912582    9.13030106920520   10.73148351318926
H        -1.19910504293123    9.32075351337801   10.13841466166259
H        -1.97005782589806    9.58020145087592   11.71476461226264
H        -2.94085443240771    9.59072883295994   10.23583846173761
C        -3.94302522611777    5.11427877256553   10.31750089298856
H        -3.06721825226204    4.47155485007182   10.27698007310899
H        -4.81370400948353    4.52764344785041   10.03563217143322
H        -4.08004439977932    5.45711071468093   11.34022533490485
C         4.87547572146780   10.97254543142666    5.32930924764729
H         4.90423683626094   10.87252041702835    4.24682981630692
H         5.77020016549487   11.50160691928419    5.64686515167680
H         4.00618863216852   11.56690926177667    5.60025509855403
C         3.14191457879958    7.01005005492237    4.29061828440084
H         4.08070550451081    6.56729702237019    4.61413680003653
H         2.96430804729894    6.73182663194725    3.25439934098029
H         2.34264463032281    6.60668910245858    4.90531974594060
C         1.90531417743307    9.19388083885432    3.94694735493530
H         1.07963564316809    8.87521551449320    4.57620617957077
H         1.70060903759933    8.91708816885511    2.91508973427878
H         1.99005645693851   10.27672669275167    4.00884005941249
C        -0.40072738866004    5.97203516556334    3.07763711846953
H        -1.13420453679206    6.44524435586355    2.42817424096966
H         0.20445103831352    5.30244311665008    2.47197913703705
H         0.24530570562025    6.73824925158920    3.49556444251763
C         5.99306419404134    8.71993869206584    5.62224038509305
H         5.90981414858471    7.75165187087393    6.10952049637777
H         6.91988751120032    9.18845780703113    5.94340813068876
H         6.04290547252064    8.56863144090505    4.54656695772934
C         1.60132601494582    9.60809089137779   12.37792659231858
H         1.57150206313444   10.67335814713418   12.59675445941622
H         1.59259643333601    9.06920934039660   13.32170090869082
H         0.71015473900288    9.33875873016246   11.81899592194098
C        -4.98854851802055    7.21936652343737    9.37764323811805
H        -5.15682929015472    7.61558083007253   10.37623770306788
H        -5.88050535703391    6.67989316104368    9.06976309302178
H        -4.83335891628659    8.05168649876934    8.69540015465883
C         4.12963218868458    9.70050922759210   12.26545711034949
H         4.99599058767043    9.39511112104427   11.68422716808371
H         4.20478481177721    9.25577280485362   13.25412309026606
H         4.14241895003976   10.78274140282901   12.37475031138651
C         1.38538388114873   11.44684287077654    9.21004830671955
H         1.40450410856474   10.99448508148708    8.22339435777953
H         1.29620457943423   12.52533210829879    9.10194745527801
H         0.51429503511434   11.07574893331769    9.74469932413375

