87
CSD_code = UVEJAI | q = 0 | S = 0 | Stoichiometry = C39H41MoN3OP2 | MND = 6
Mo       -1.09863915070284   15.50581829722387   14.52589318715147
P        -0.74110467095282   17.85835358190688   14.74865230021719
P        -1.49385085618574   13.15189095463328   14.67087251568317
O        -1.25016635420426   15.50065048137490   16.20742891516381
N         0.87550215912413   15.59696787388995   14.19726427539024
N        -0.92559339506933   15.51062325061451   12.60669042417634
N        -2.98246839614288   15.41915204690225   13.84868508683288
C         2.81827111324195   15.68486947315018   12.61044314655504
H         3.26355173638574   16.63851562909705   12.89922986725952
H         2.96085122012755   15.56017642811908   11.54213794320513
H         3.36657763161826   14.88863285454641   13.11790954224033
C         1.35459098353782   15.62206847926157   12.94471042689079
C         0.32848664072331   15.56342872120064   11.99047788271424
C         0.45592090556362   15.56423747844292   10.60289259751524
H         1.43410841256962   15.60799892082061   10.14857379679108
C        -0.67230255763155   15.51373913449188    9.80097544980417
H        -0.57513740249762   15.51421989892492    8.72502896260179
C        -1.92595285712477   15.46265879596883   10.38776328693406
H        -2.80696074604041   15.41976711551633    9.76554732097955
C        -2.04900584277730   15.46086773972607   11.77570010948484
C        -3.22950440180112   15.40063360230007   12.53047266722375
C        -4.60958634929102   15.34317862616544   11.93873428276120
H        -5.09853217090644   14.38677432600022   12.13208920353327
H        -4.55855795135230   15.48040636706135   10.86368601113374
H        -5.24072558919944   16.13419335665061   12.34864326000791
C         1.75572863808764   15.86885040452847   15.30472469694687
H         2.74324990993610   15.41146305173058   15.15570292253867
H         1.30806728222412   15.43911955989546   16.20688044826463
C         1.93660045659551   17.38309380210204   15.50466375323866
H         2.29191160181556   17.81585793263878   14.56598852864822
H         2.70499612853976   17.54510170530742   16.26703672039545
C         0.64961039844027   18.08232486653930   15.94010207655977
H         0.82447465311302   19.15081879544521   16.11398215390889
H         0.28377441991780   17.63567453781817   16.87294359113620
C        -0.28951775617024   18.81906356588158   13.27696651209225
C         0.80892006243959   19.66165789289674   13.15195923685750
H         1.45363686013201   19.85527708247733   13.99709372556772
C         1.07836880510759   20.27287631944294   11.93909475460185
H         1.93709380466713   20.92293050966306   11.84663319371295
C         0.25679536030348   20.05341737983320   10.84645760368673
H         0.48098404687731   20.52348684082527    9.90012597910242
C        -0.85507505683333   19.23505529687242   10.97068902386326
H        -1.50268606764096   19.06601931063257   10.12315930828101
C        -1.12581799528138   18.62387075851455   12.17895376032151
H        -1.99236334268064   17.98264177298310   12.28915714586990
C        -1.98722764233973   18.90338516778204   15.55610874371892
C        -2.65013568794065   18.32623742163177   16.63775437683955
H        -2.37494309481193   17.31819865913645   16.92932912857150
C        -3.63832522864962   19.02512575729579   17.30256281164066
H        -4.14861552813250   18.57794289829003   18.14359627147127
C        -3.98006366602371   20.30380522528006   16.88599231119032
H        -4.75359686784493   20.85236276701903   17.40349241428408
C        -3.33411151155651   20.87559942617192   15.80245046932625
H        -3.60554694625138   21.86931101473774   15.47565688902587
C        -2.34027113671118   20.18094736273183   15.13473437591815
H        -1.83853991387296   20.62828913487956   14.28773609794452
C        -4.04752440273947   15.14564348796871   14.77923422499530
H        -4.99186203926677   15.60467393029272   14.45669894089133
H        -3.76899848677874   15.57225203036675   15.74839102934075
C        -4.26321824212815   13.63129958637028   14.93897593204354
H        -4.44661448375299   13.20180291411760   13.95079640809491
H        -5.15507987443561   13.46848523529532   15.55209853475237
C        -3.07527473195185   12.92892225495954   15.59465070117746
H        -3.27978772730531   11.86046014457086   15.73220738482187
H        -2.88035112742464   13.37300947614536   16.57864764000092
C        -0.41835415760350   12.09548124425288   15.68326481721008
C        -0.00449499274716   10.81678212482398   15.32555726123277
H        -0.34655212658363   10.37819701629788   14.39823911998969
C         0.84362899206436   10.10941809288405   16.16008543136374
H         1.16192338822611    9.11467457078462   15.88236020963329
C         1.28388985484501   10.66973388386630   17.34776838314238
H         1.94404944066818   10.11115404063501   17.99525456399550
C         0.88296922806516   11.94991854059595   17.70223805433906
H         1.23415631292861   12.38830763215739   18.62542504062874
C         0.04003125601309   12.66156402070410   16.87149772865605
H        -0.27518893381662   13.67086585923020   17.11400354915496
C        -1.68161608507846   12.20125167258513   13.13652450052006
C        -0.66856974620555   12.40333135707501   12.20061651557958
H         0.16713298195414   13.04097949948823   12.46371540213651
C        -0.72836227278348   11.80317547923727   10.95835194677194
H         0.05522782509851   11.97822821289814   10.23609531115578
C        -1.80325770434279   10.98884194224986   10.63756026292300
H        -1.86277544220598   10.52873400236887    9.66210473428221
C        -2.80012558121618   10.76121014892384   11.57114927863740
H        -3.63086732800444   10.11407916094875   11.32686739768899
C        -2.74245259884306   11.36143689549865   12.81751199267785
H        -3.52242828932614   11.16155588698240   13.53797621528613

