73
CSD_code = UVEMEP | q = 0 | S = 0 | Stoichiometry = C34H32Cl2N4Pt | MND = 4
Pt        2.66483121351003    2.76237360044618    9.89784196555459
Cl        1.13627844064116    1.09551928626349    9.41490337140912
Cl        1.14239793935171    4.39797117756148    9.30818464705412
C         3.90985464874911    1.24121652334762   10.28578356376723
N         4.47191257271487    0.42326672521785    9.37907300594803
C         5.15132553341937   -0.58527712616425   10.00880933102821
H         5.66020941457110   -1.35583658707732    9.46778699170865
C         5.00812018709952   -0.38637352152741   11.33921792812407
H         5.37848756571966   -0.94494398530354   12.17381048162761
C         3.83502989366469    1.31410774915948   12.74104082028719
H         3.70224769330743    0.51567828974339   13.47720445019393
H         2.85922425390160    1.79403118183162   12.57499892697904
C         4.80509686697286    2.34587877392258   13.26880605861362
C         4.61943663840649    2.84494323527022   14.55370759684392
H         3.81389713442351    2.45856785212338   15.16201938863090
N         4.93843206838500    4.77886905730885    9.78291717715356
C         5.45100875174417    3.83099283149744   15.05255748123369
H         5.29460105341608    4.21074912404580   16.05129578356765
C         6.48038767258081    4.33098632332737   14.27223463562254
H         7.12739905691947    5.10386729333508   14.65825575649284
N         4.23719251547929    0.73549266856109   11.49017731479290
C         6.67848478593824    3.83006359661421   12.99816961315397
H         7.48412852044002    4.20993207374185   12.38781926253800
C         5.84684350160411    2.84188803493603   12.49865294186399
H         6.01255424722457    2.46071363327678   11.50186745373195
C         3.87190676980172    4.27677706683872   10.43129088388859
C         5.42104896282142    5.87569484259857   10.44591282134147
H         6.25884186522865    6.43684474727960   10.08719304071746
C         4.63775825504433    6.04983937146539   11.53469780367927
H         4.67063404562837    6.78703264980742   12.30958841723477
C         2.62245542512970    4.92746316696457   12.47094470631628
H         3.01776619938187    4.48158599730520   13.39003160434820
H         1.87913585094180    4.25325821752645   12.02317369293496
C         2.00035590779979    6.26644806922335   12.76386195915562
C         1.27772525779246    6.91766389506351   11.77132309752124
H         1.14597865309972    6.43553283748469   10.81309975077003
C         0.72326568888369    8.15953188082831   12.02184623147581
H         0.15833274610435    8.65961889109066   11.24957721346688
C         0.88589303718332    8.75868598295275   13.26045869852392
H         0.44981032853173    9.72742901937261   13.45576235817786
C         1.60483278840338    8.11239126288360   14.25117560181318
H         1.73135381070940    8.57529286404938   15.21913369330723
C         2.16403267006260    6.87057927130757   14.00244757313836
H         2.72663559754934    6.36553886132901   14.77638452104675
C         4.32291732542185    0.53928551697625    7.94381112085914
H         5.24307781287742    0.95052204457674    7.51159138436034
H         3.49109048008715    1.23634766262459    7.76832096656620
N         3.69197868109018    5.06293382055721   11.50673771285390
C         5.41944408816541    4.32024924637423    8.50222510988145
H         4.85216044654919    3.41176973919699    8.26288918436978
H         6.48565496911531    4.08049513148872    8.57426057726548
C         5.17850360779142    5.36869050141943    7.44393051100502
C         6.22919931146655    5.92519247363873    6.72995979002890
H         7.24244042648097    5.59342345006444    6.91301022510966
C         5.98432468060867    6.90013445993241    5.77760314027024
H         6.80686341933110    7.32631408580440    5.22183346208407
C         4.68971262508004    7.32858242695631    5.54189219946216
H         4.50077341080788    8.09186989656762    4.80158579501008
C         3.63823276293085    6.77675892159451    6.25595297930196
H         2.62659368896471    7.10647396125652    6.07474785837116
C         3.87911559878934    5.79867678790292    7.20271976362426
H         3.05896476680320    5.36444604848900    7.75818424192511
C         4.01215416310609   -0.80271167207799    7.33477010660586
C         4.92488329953609   -1.44202937181597    6.50784541894904
H         5.86482383199419   -0.96290400662966    6.26860939017902
C         4.63337678023619   -2.68878903615261    5.98093415303259
H         5.34678300971120   -3.17915651278157    5.33463526155665
C         3.43159116085566   -3.30488971467485    6.28387583302312
H         3.20620906056011   -4.27827474625230    5.87354363960895
C         2.51816678262420   -2.66908875628767    7.10921387843858
H         1.57716530536017   -3.14441450073326    7.34176796367605
C         2.80452046175405   -1.42235500292169    7.63417113223477
H         2.09333201159246   -0.91243956196572    8.26843758351624

