100
CSD_code = UVENOA | q = 0 | S = 0 | Stoichiometry = C41H51MoN2P5 | MND = 6
Mo        5.63228242342011   12.72870832180231    7.06605140640815
N         5.12546922334371   14.45226234267478    6.64494374506866
N         4.81962140845509   15.49235183223335    6.36224580846345
P         6.16260881678497   13.61508171971825    9.18696180409932
C         6.80232687786685   12.57426633775040   10.57558643447812
H         7.50501915832810   13.17011204458267   11.16729636906431
H         5.96202949254895   12.30318441892784   11.22406553521535
C         7.48888477915021   11.32281276545985   10.04740248826069
H         8.10467645187881   10.88429024247242   10.84084017093818
H         8.14704180859496   11.61568907256748    9.21963922983206
C         6.48846305010919   10.29124103450777    9.52918549466369
H         5.52620229569412   10.39742967943368   10.03951706205863
H         6.84234509559654    9.26776615844676    9.69912483230616
P         6.19311769795106   10.51977277477504    7.73002670762514
C         5.00206893435802    9.12275683437839    7.49438501359474
H         5.03851871819912    8.81421778440948    6.44493916960687
H         5.36563365081087    8.28261414440295    8.10009065457928
C         3.56461624038626    9.46300818333081    7.86653969474804
H         2.98167913422340    8.53535685289092    7.89052370033969
H         3.52712353710504    9.89774019661326    8.87051364805571
C         2.93643540220328   10.42866739449304    6.86696028432861
H         1.84430786115415   10.33092222262420    6.86589166485031
H         3.31696276976832   10.21003112219183    5.86518584736286
P         3.36018456641724   12.17486390817001    7.27076613921478
C         5.01683867590931   14.67785943244328   10.13862486882125
C         3.80407040371885   15.02580712022959    9.56540657576142
H         3.58730605968045   14.64354982158201    8.57763872252047
C         2.90355730555011   15.82985879704835   10.23865159120655
H         1.95930179988830   16.08999843372373    9.78143534603560
C         3.21551376702868   16.29716998898184   11.50336214321457
H         2.51511180792096   16.92050336839937   12.04032366633153
C         4.43443221223471   15.97243117105543   12.07746175898239
H         4.68452246627370   16.34888064780111   13.05954730444470
C         5.33566670045896   15.17271194906579   11.39995784681393
H         6.29047636371995   14.94330153573151   11.85178282911626
C         7.49341492043011   14.85655655190119    9.05377843679976
C         7.13914140867094   16.14406626190323    8.65355492489230
H         6.09971765110455   16.37535408294280    8.46270862011380
C         8.10166838156555   17.12424013382868    8.50325243276332
H         7.81192160182254   18.11951296506453    8.19800310513235
C         9.43535003965326   16.83442390405740    8.74618675952770
H        10.18856960094435   17.60124255822310    8.63510206144665
C         9.79836121185919   15.55506534994783    9.13208800537444
H        10.83785259551616   15.32282620631807    9.32182382460428
C         8.83576577213421   14.57148090045554    9.28299858445674
H         9.13781849517980   13.58133246985368    9.59531897968228
C         7.64286198973323    9.62863484183297    7.04863061327574
C         8.78785164012281    9.27214890353496    7.75537193985453
H         8.88538563548222    9.49799765227777    8.80559240011407
C         9.83176419706448    8.61929758318112    7.12014780595940
H        10.71317935715811    8.35078466575808    7.68555800512070
C         9.75532909088225    8.30823933562015    5.77405015316116
H        10.57282347084857    7.79859576674771    5.28553309586048
C         8.62119797889620    8.65626809443037    5.05886939292171
H         8.54839880925476    8.41719410916631    4.00672726267867
C         7.58430251402834    9.31106121437110    5.69420226960351
H         6.70094096813368    9.59249152181754    5.13824435459688
C         2.30634752638931   13.05902529910820    6.07875142045366
C         2.04081341973296   12.54050106431807    4.81455376499105
H         2.37817026338784   11.54782431759639    4.55577922287566
C         1.33477419417361   13.27703817074802    3.87974014408760
H         1.12940527146971   12.85301325879296    2.90584738509574
C         0.89504211248583   14.55390499854411    4.18516262707670
H         0.35108550236200   15.13117693041945    3.45162166944546
C         1.15492440808099   15.08232835666842    5.43830202869756
H         0.81423518591491   16.07699730680304    5.68694254673381
C         1.84974360372859   14.34187365663531    6.37601911153278
H         2.02074572668507   14.76001441291317    7.35691885124055
C         2.32931556131138   12.28486853925925    8.77784970299339
C         0.94166424003649   12.36628553063130    8.74368725859019
H         0.42536819559810   12.40774809769895    7.79357043427149
C         0.22436597470919   12.40613418307440    9.92539614187649
H        -0.85372088846344   12.47949800979987    9.89642630089581
C         0.87972759285450   12.35216894390687   11.14530863729473
H         0.31270931147833   12.38761072744453   12.06428329545337
C         2.26040745758524   12.25356400032918   11.18547029695511
H         2.77429286247869   12.21096010266233   12.13562685648205
C         2.97585202886867   12.22216916649831   10.00387760939669
H         4.05932901323174   12.17027024144224   10.00087583965849
C         8.21885414801990   14.93736042415126    5.64204435154347
H         8.73179043482437   15.42404340467447    6.47048007376731
H         7.30971030991753   15.49670275143512    5.42242811883828
H         8.87142513461029   14.92356246762466    4.76669942609495
C         9.49060173463741   12.60690305961024    6.44720166074549
H        10.10770762108828   12.78459598748744    5.56422957140574
H         9.46047008457742   11.53976917379751    6.66405062832025
H         9.91541291196881   13.13779577751263    7.29788492193373
P         7.79161420539728   13.22632799998829    6.13005184433259
C         7.43432015328405   12.45710761736064    4.48965812624690
H         7.77537024982808   13.02160376712401    3.61377102268713
H         7.87218165104160   11.45433322941861    4.47928156238714
P         5.60443472279818   12.35319377938821    4.68478423430197
C         5.11924678489626   11.03393868522402    3.47971068579624
H         5.85461818178739   11.00002684880190    2.67374161391619
H         4.14435231770686   11.28513187373572    3.06323443555555
H         5.05364854931429   10.05415803230085    3.95031654080718
C         5.10814231876364   13.77884720501440    3.65163695949580
H         5.57241402167277   14.68475319100862    4.03906413159559
H         4.02529660865634   13.89850865556304    3.69600680983384
H         5.42125500391206   13.61422602538786    2.61859354793945

