66
CSD_code = UVEVIB | q = 0 | S = 0 | Stoichiometry = C25H27B10ClN2Pt | MND = 4
Pt        9.30846755133568    2.23926868958490    1.95874230207372
Cl       10.19844433893190    3.33670872001105    3.68113924954840
N         8.45680677482990    1.19849610444002    0.55376562518384
C         9.27663777891165    3.91693511571561   -0.58467810449118
B        11.97828286939987    3.72991242418631    0.09046756194187
H        12.82729951974328    3.77268269325866    0.89751968969072
N         7.80662710055664    1.11550364170616    3.16246368168844
C         9.76125519341024    2.43585347615431   -1.02739016590433
B        10.03313495364486    5.11544567873845   -1.53607975713650
H         9.40819213568740    6.08069727558716   -1.77824209086759
C         7.56023919232992    1.14228898065838    4.45986629183409
H         8.11672903150546    1.87998228894970    5.02352809035826
B        10.56996665048385    4.81548962702160    0.11863156478942
H        10.32969603768143    5.62331208486444    0.93262159763885
B        10.39112765246489    3.10660847471134    0.49144045407020
C         6.65665513103273    0.28490625477044    5.06303592251289
H         6.47674742085684    0.33349811863040    6.12457101017476
C         5.99894825705911   -0.63904434419000    4.26128170769338
H         5.29278724237010   -1.33450309615749    4.69039843586988
B        11.77521107604844    4.99668931794161   -1.16053795208639
H        12.47739324441734    5.93739496208063   -1.20795531632457
C         6.25723825550482   -0.66508261583660    2.90429683396053
H         5.75408496475965   -1.38651176765929    2.28193431283245
B        12.31620959715884    3.36299988750989   -1.61976787932933
H        13.40385961039363    3.13055031738366   -1.99920313471046
C         7.17655196518954    0.24088320131273    2.36472065477501
B        10.92526640990010    2.51250143917957   -2.29575590932647
H        10.96526054935631    1.64926670377461   -3.08464745532645
B        11.40912671707762    2.19423239387742   -0.62667755274311
H        11.73272957642570    1.10061358231633   -0.33871605458707
C         7.50903463532235    0.30912795860890    0.94070940571506
C         6.86954244103364   -0.49161491267201   -0.00199724400159
H         6.10455369559009   -1.18857275933776    0.29437443968611
B        11.13251614674041    4.24079235759740   -2.63745806513950
H        11.38247935454882    4.63364442945702   -3.71675035601570
C         7.22726030904030   -0.39173979916255   -1.32587474504235
H         6.76024676216800   -1.01649592744946   -2.07174815411214
B         9.54552546193864    3.59397774670307   -2.27114029718690
H         8.62088170145791    3.49338504477626   -2.98135693745617
C         8.19448007156730    0.53528999195643   -1.72828583621352
C         8.78086303621829    1.35051228564172   -0.76064964532045
C         8.49471259024439    0.53029141808245   -3.17829885532853
C         9.51936015327386   -0.27227444282890   -3.66906659586034
H        10.13820286570423   -0.82577696218462   -2.97800810055250
C         9.74820746552827   -0.35809754917441   -5.02766518973795
H        10.55158827044644   -0.97958516655245   -5.39497609244597
C         8.96033904234310    0.34683435781654   -5.93153418094884
C         7.91779541675063    1.11734539137426   -5.43814322351765
H         7.27979734843057    1.65707535581443   -6.12267565182666
C         7.67679488137408    1.19801681280384   -4.07824125311776
H         6.84163629204942    1.78172636601965   -3.71786969483530
C         9.23919045640042    0.26305906449630   -7.40017283940653
H         8.47620108710918    0.78339101229073   -7.97314989237905
H         9.27465833556292   -0.77583641570954   -7.72447178051277
H        10.20592010167575    0.71371086671874   -7.62189434179900
C         7.87754173744889    4.01945059222707   -0.06768861455144
C         6.78290085110263    3.54618190818347   -0.78780316670756
H         6.91309211066140    3.15915362443724   -1.78559385444656
C         5.50943324136195    3.54381248486784   -0.24324578044479
H         4.68576715195908    3.15364510045987   -0.82391151017915
C         5.29378100676699    4.02610414480151    1.03368420809549
H         4.30279274750855    4.01134080831025    1.46235529088986
C         6.36273481372163    4.53644533730935    1.75229036734699
H         6.20846594443599    4.93476997608429    2.74362843825677
C         7.63851486463682    4.52968882915300    1.21562195320547
H         8.44621080941485    4.96194103855879    1.78753418208773

