91
CSD_code = UVEVEY | q = 0 | S = 0 | Stoichiometry = C36H40N6O8Zn | MND = 6
Zn       -0.00001768613927    0.00001954052941    0.00001272208808
O        -0.07108276742224   -0.49715374474642   -3.21294585774599
O         1.27786195466738    0.08514766633384   -1.54059546531967
O         1.81437182966415   -5.56914714153135   -1.80906905015126
O         1.59512382736310   -0.50541022123646    1.36952555937793
H         1.15835209428855   -0.10405942541262    2.17907476233924
H         1.71527501294904   -1.43623337547796    1.57558230268566
N         6.52656804406418   -1.35299717740525   -6.67495842254651
N        -0.39357449402630   -2.01544820799479   -0.45220277539712
N         1.32382913080882   -4.55309464150797   -3.76985989258037
C         1.05235988249992   -0.28835476499604   -2.72130187693319
C         2.26351314531992   -0.50475806503789   -3.59085813137435
C         2.12793882610326   -0.53477562136803   -4.97503690746218
H         1.14753464415931   -0.39024859189130   -5.40375270036739
C         3.23155085887697   -0.74134060973760   -5.77717321531799
H         3.13900013013223   -0.76056525715285   -6.85360614863339
C         4.48450776643460   -0.93043244864877   -5.18941720528656
C         4.62370729699983   -0.90242102766248   -3.80028487554724
H         5.59865158616856   -1.05092422214657   -3.35985587783969
C         3.51440571478650   -0.68520505132109   -3.00936082426526
H         3.59859215929608   -0.65091671997613   -1.93360788490273
C         5.61478735992914   -1.15991049756444   -6.00731973239832
C        -1.66258366517264   -2.40210851621267   -0.38979474778932
H        -2.32042088015343   -1.74445377039515    0.15549736597826
C        -2.11377602676720   -3.57436179419518   -0.97210045158084
H        -3.14916275471087   -3.86156752754675   -0.87953225761857
C        -1.21924027273485   -4.35902308548587   -1.68020188612515
H        -1.53444335937299   -5.28110673265345   -2.14628671348193
C         0.10356081970683   -3.94239145174787   -1.76970803516595
C         0.47024350380496   -2.77881257776296   -1.10667396128891
H         1.49861937183755   -2.44714011980177   -1.11812844866176
C         1.15949979294404   -4.76844208138824   -2.45182528267724
C         0.54398266305839   -3.61010695893678   -4.54535172370084
H         1.20082207684386   -3.18418744827893   -5.30775770191851
H         0.20255692410390   -2.79267590959565   -3.90701256626636
C        -0.65734855712608   -4.26832278990145   -5.22161663424336
H        -1.17601416874109   -3.53453401842338   -5.83190369923447
H        -1.35256080116652   -4.65236989089927   -4.48035103509697
H        -0.34172858160505   -5.09075081648243   -5.85940615047905
C         2.35367935192654   -5.30309566925652   -4.46765812317784
H         1.98208849627353   -5.56931808225737   -5.45980176815761
H         2.53279388236376   -6.21575536299401   -3.89487402417294
C         3.65163573667043   -4.50971949947703   -4.58019285620908
H         4.40436229870403   -5.10106262179898   -5.09379174399856
H         4.02032949211222   -4.26079534406915   -3.58841137255768
H         3.49867925444890   -3.58721111946675   -5.13593333333997
O         0.07095743976655    0.49703419883944    3.21292449195315
O        -1.27796366151815   -0.08512925857230    1.54050740289491
O        -1.81437931296855    5.56907545951438    1.80917551660727
O        -1.59513828916752    0.50537234269507   -1.36956366865726
H        -1.15835161209545    0.10416830854060   -2.17919189876110
H        -1.71530818877951    1.43622193793704   -1.57550666876894
N        -6.52677778084120    1.35299809733232    6.67476390389863
N         0.39364065355829    2.01544605914876    0.45223952593763
N        -1.32375019249606    4.55301844610073    3.76994018232884
C        -1.05248428937372    0.28836304873727    2.72122214747124
C        -2.26365306605902    0.50482911772945    3.59074336370480
C        -2.12809186711143    0.53479309749111    4.97492306451344
H        -1.14767316850308    0.39031347994463    5.40363081838982
C        -3.23169719300327    0.74135189604239    5.77706625099182
H        -3.13913942321677    0.76058518261871    6.85349949735122
C        -4.48464267312324    0.93048600915076    5.18931499410585
C        -4.62383203434440    0.90254730453184    3.80018028150329
H        -5.59879094256182    1.05101196020940    3.35975712064195
C        -3.51453098050940    0.68535109158316    3.00924560451216
H        -3.59873974892474    0.65103904942979    1.93349232128210
C        -5.61493045298055    1.15987884142780    6.00723573602097
C         1.66264235135116    2.40212370327403    0.38981721142002
H         2.32048580890817    1.74446494092090   -0.15546249913696
C         2.11381391769629    3.57440315982464    0.97208384740781
H         3.14918672270261    3.86164717698011    0.87947461578053
C         1.21927429997645    4.35905124573174    1.68019705093265
H         1.53446108162408    5.28115509954909    2.14625291240515
C        -0.10350991836767    3.94237958826069    1.76975027298232
C        -0.47018067558939    2.77879713246244    1.10671722833700
H        -1.49855022879775    2.44711022865382    1.11818597584257
C        -1.15946258943391    4.76838209961232    2.45190279130153
C        -0.54387019921261    3.61003899899209    4.54540777512866
H        -1.20068850013368    3.18410708074236    5.30782565319602
H        -0.20244611872545    2.79261649059073    3.90705596288472
C         0.65746409870589    4.26827061844284    5.22165275291691
H         1.17614170253345    3.53449417567394    5.83194415933320
H         1.35266534827205    4.65231128115387    4.48037340693173
H         0.34184839048813    5.09070585596266    5.85943589248537
C        -2.35356406441097    5.30303597498954    4.46777536440598
H        -1.98194023836051    5.56923007936846    5.45991405036627
H        -2.53266815655989    6.21570897811862    3.89500867450248
C        -3.65154319455445    4.50970061837162    4.58033479982871
H        -4.40423723629698    5.10107358492209    5.09394783040366
H        -4.02026696166026    4.26079228879873    3.58856052662306
H        -3.49860977022503    3.58718672308825    5.13607240420608

