95
CSD_code = UVEXUQ | q = 0 | S = 0 | Stoichiometry = C40H49N2PSi2Zr | MND = 5
Zr        9.58339258405958    3.37561224978302    4.66863645707223
P         7.10107120152346    4.78174907481018    4.47032846245679
Si        8.23653872274718    1.61332266929537    1.75587199995872
Si       12.56340561104801    1.51915112867650    4.46530443947303
N        10.30359163782848    5.35129332337570    4.57620746733263
N         8.56879153419211    3.31894698339258    6.53185041066079
C         7.75640032889990    6.51653132270711    4.18585430499642
H         6.91717793857265    7.17909450494835    3.95300132557394
H         8.20147064478816    6.81349948071004    5.14463723761810
C         8.81117743994825    6.60990258849187    3.13094378231986
C        10.08810722077060    6.07822597095454    3.40274407689886
C        11.11126360601255    6.29433382580866    2.46979787030709
H        12.10846961262585    5.93859144086912    2.69090211686283
C        10.86480257870435    6.95880149170751    1.28486758173603
H        11.66707351250699    7.10283184961168    0.57641888746286
C         9.59804012124020    7.44529367005270    1.00717617784508
H         9.40397555099984    7.96819315526507    0.08322739686613
C         8.58681948287835    7.28168710054292    1.93859596755536
H         7.60975738691170    7.70484686059855    1.74738688851291
C        11.33450394571874    5.71847395114813    5.40489843106509
C        11.85311998380035    7.02542282514452    5.44330692540587
H        11.45563867628271    7.76745803566584    4.76434696420869
C        12.84146156423468    7.36735340201046    6.34094313334109
H        13.21983140164412    8.37963019202235    6.35077020306155
C        13.34740360082305    6.43262260578984    7.23081675557923
H        14.12135212010362    6.70726305462937    7.93072894660371
C        12.84494393191261    5.14129880668410    7.20994039099194
H        13.23187767315936    4.40677155955468    7.90322294106322
C        11.85885511921864    4.77887645768302    6.31325755317519
H        11.46971618637095    3.75735608887881    6.29105954902310
C         6.38943387476063    5.16352312657588    6.15417686132460
H         5.72553311087107    6.03071941622967    6.07627296017003
H         5.80693764826272    4.29794347331700    6.48538408335560
C         7.50361428111051    5.43743154583349    7.12116080991291
C         8.53724117740344    4.49170561358582    7.29149195223481
C         9.55420883697272    4.76405165041989    8.21099989225530
H        10.30409828049782    4.00656215211840    8.39395225417786
C         9.58482276889633    5.95879970894261    8.90415861654293
H        10.38496465513422    6.15308707055049    9.60235853064474
C         8.58670785352988    6.89825109246512    8.71109484893964
H         8.60582931383472    7.83383082495627    9.24882668751199
C         7.55207676977585    6.62764102826483    7.83105907958802
H         6.76451013698681    7.35644313588402    7.69237779767692
C         7.54035243954224    2.42548242492616    6.64016049441937
C         7.32692230608818    1.50440402764420    5.59538939549820
H         7.98772301181029    1.55728889661200    4.72432474881334
C         6.32879343851156    0.55385137055439    5.68423465807763
H         6.18463830800560   -0.14361761905181    4.87143983082832
C         5.50421690686649    0.49485742130262    6.79755712378243
H         4.72169534591879   -0.24526760896265    6.85955463927746
C         5.70142899328965    1.39499465236495    7.83447533619266
H         5.06930594191828    1.35318202599182    8.71029423357274
C         6.69790704188124    2.34519114681843    7.76639581193281
H         6.85505134446492    3.03307791280001    8.58659513950637
C         5.59412658009664    4.88664592968489    3.43249090437451
C         5.75977709642135    5.18712654936033    2.08191556651676
H         6.75324245862734    5.37388760893045    1.69853592043601
C         4.67010045100429    5.24229044160686    1.23447988092423
H         4.81084880785001    5.48573840313320    0.19138016068000
C         3.40010651285076    4.97312839959812    1.71948126521664
H         2.54725191621704    5.01282978140240    1.05844382672511
C         3.23145709352549    4.63814289812886    3.05188368946245
H         2.24559601010142    4.41090475346561    3.43050085337289
C         4.32098287255102    4.58790504613522    3.90409662561072
H         4.17266519614798    4.30932816840543    4.93667135830241
C         9.23513951336514    3.03307873378094    2.46934180380401
H         8.79761101647011    3.97378670451939    2.09269973999304
H        10.25328651969435    2.98516899764313    2.04986349960930
C         8.86500863613257   -0.08727311128406    2.39391392310140
H         9.95012850969243   -0.11541202966967    2.42748900074144
H         8.54168374379755   -0.88444956649248    1.73119677942242
H         8.49548801666183   -0.32765227321081    3.38667806878148
C         6.36986280994525    1.77363518768413    2.18254449421397
H         6.20308444290804    2.14726693994692    3.19033688149841
H         5.86633794093977    0.81560868628578    2.09956430929069
H         5.87456826364985    2.45616768216163    1.49941465677577
C         8.30470227799564    1.48836762842189   -0.16207130367533
H         8.00650338758583    2.42327733290349   -0.62724815862407
H         7.64641900819595    0.71211477263867   -0.54045833966613
H         9.30925327782921    1.26063633670689   -0.50595607465549
C        10.80648026004301    1.54164494411805    5.13165501044141
H        10.81017556837108    1.42179263853537    6.22816373190012
H        10.25939114414325    0.67540618072906    4.73738404113689
C        13.90306372327979    1.62835054259907    5.83706900272041
H        13.88911116188784    2.59609630727384    6.32797252857593
H        14.89847835854025    1.48609601620958    5.42784793649474
H        13.75342590553833    0.86792571728068    6.59714432827619
C        12.83099179307639    3.04578292905713    3.32120238624187
H        12.58517744895055    2.81715484534152    2.28698733007798
H        13.86476149472633    3.37985583860822    3.33561822364079
H        12.20572483995362    3.88138988738693    3.64256881335901
C        12.98737103292311   -0.02186762005135    3.40369295667098
H        12.88343538139416   -0.93719438577482    3.97715698924720
H        14.00665616648415    0.01855818585080    3.03269609468227
H        12.33047865447833   -0.09821219007531    2.54237086298094

