95
CSD_code = UVEYIF | q = 0 | S = 0 | Stoichiometry = C40H49HfN2PSi2 | MND = 5
Hf        6.94081597100872   14.74290877599490    2.51609529485873
P         5.98490908421537   15.23250200247618   -0.13985687147083
Si        5.61220613142051   11.58878598158623    2.66514640942653
Si        8.72834271595289   17.60657845706588    1.72572970856014
N         6.65306217642766   12.75332464550807    1.94244990320308
N         8.29316446139092   15.95985244056769    1.51345968495736
C         5.63711596298349   13.47370726797200   -0.67448082695904
H         4.82263649126953   13.10412127669790   -0.04582048559921
H         5.31527236632034   13.47486080411751   -1.72035473520789
C         6.84142252847972   12.60511405817483   -0.49548669187868
C         7.33793599858151   12.33452034580564    0.79368938144150
C         8.48401605110068   11.54171957235856    0.89883552773737
H         8.87540596206393   11.33593077199805    1.88235377913432
C         9.09522678616179   11.00241556685117   -0.21456904987390
H         9.97432025001366   10.38629227742955   -0.09680509551100
C         8.56934183440285   11.23010723324698   -1.47384741873071
H         9.02347466278474   10.78796364479819   -2.34743634233134
C         7.45646330746887   12.04036127850168   -1.60226219715485
H         7.04458277617556   12.22984593548442   -2.58473327085112
C         3.80277200160711   11.65579684722746    2.00519061625431
H         3.38797202782367   12.65921512700130    2.03737111897262
H         3.15971135945057   11.02460040688227    2.61028532105630
H         3.73242910094954   11.29364579653043    0.98318256399274
C         5.48885244764621   11.83306822558113    4.55850219382809
H         6.41968262044062   11.61554777811792    5.07114169948155
H         4.74449296400734   11.14807928838034    4.95045395581070
H         5.17715396438556   12.83573450765227    4.83042681469623
C         6.19427852511018    9.79373569922130    2.35906571440891
H         6.37159155924124    9.62155234116975    1.30231005438947
H         5.44918982147033    9.07870118271405    2.69165621038585
H         7.11813633067127    9.57132717074136    2.88264474545660
C         7.44658854366113   15.60832769302875   -1.21963104393108
H         7.24868439463755   15.28492194631664   -2.24652168351977
H         7.57508315792878   16.69385356987665   -1.19861541143728
C         8.70098598521192   14.97775097679524   -0.69090144299160
C         9.06226609253777   15.16135836184492    0.65664892615697
C        10.24717659134685   14.57646726362301    1.11011538788665
H        10.53879986529788   14.74113059136335    2.13559231694542
C        11.06069109357524   13.85088645161922    0.26255347093143
H        11.97307591884942   13.41557577629252    0.64232606864127
C        10.71768636275874   13.70530886086272   -1.06969537928561
H        11.35850243723208   13.16023657494926   -1.74566083287683
C         9.54160899170046   14.26732648941988   -1.53307854371441
H         9.27331520032296   14.15821230596861   -2.57488171455179
C         7.86594540136319   18.79228617319739    0.47974548755388
H         8.33789489421310   18.77169282487451   -0.49895484783579
H         7.91657003301910   19.81617666912318    0.83578538496071
H         6.81492604131771   18.54438994653945    0.35849597883653
C        10.60970152340677   17.88666202882379    1.53153475347487
H        11.16908537007114   17.38763939908907    2.31606720533985
H        10.85960535477654   18.94188599245206    1.56514466288133
H        10.96043666495026   17.49080736677035    0.58331016545146
C         8.16337174220592   18.12787886143390    3.46923603794386
H         7.30413804676428   17.54675046957751    3.79313682831536
H         7.87097085788143   19.17149505424193    3.47700634391778
H         8.95231969530844   18.01175973960980    4.20361924686792
C         4.63177868598958   16.04599673552451   -1.07224649327922
C         4.82396872947523   17.18245607370955   -1.85132156769834
H         5.81319590512496   17.59246065897065   -1.98408127973919
C         3.75087632923822   17.80324597987996   -2.46657087167453
H         3.91866239977533   18.68022029946082   -3.07458605535496
C         2.46824278167663   17.30993570413276   -2.30246495468930
H         1.63305119794977   17.79690372087550   -2.78289531709077
C         2.26182618631768   16.19254965952225   -1.50976426877352
H         1.26292203065206   15.80720627290609   -1.36731730562412
C         3.33212172762142   15.57241006150056   -0.89476295935863
H         3.15780430979771   14.70810030614515   -0.26932442094649
C         7.74334470869184   14.70978134683239    4.59431543004561
H         7.73083639405635   15.67340761708086    5.11383351353857
H         7.14867552291328   13.99088171980361    5.16826072373011
C         9.12450206377574   14.21689747815727    4.45080252551128
C        10.23792268737521   15.04532032366323    4.64015723832304
H        10.08527747167448   16.08399731878995    4.89865939626519
C        11.52504521076025   14.55708124154212    4.50968818152165
H        12.36640308504349   15.21858760380924    4.66281715180236
C        11.74299219687234   13.22553322700815    4.19459394473465
H        12.74863015365929   12.84472432646819    4.09850434503748
C        10.65446318822622   12.38519704065614    4.01412278346203
H        10.81752003598909   11.34206520273732    3.78062723865437
C         9.36769302298597   12.86909306206533    4.14226068626964
H         8.52063701739489   12.20174746938107    4.02694223972156
C         4.79969994999711   15.24940077834195    3.00229812957409
H         4.18196973660774   15.05603911922631    2.11709875670139
H         4.41678105286546   14.66504047228786    3.84523807106790
C         4.81569013771454   16.67949638521101    3.32239431367541
C         4.71160988739028   17.65708665648700    2.32057172713588
H         4.57679673322927   17.34705705092503    1.29093140695046
C         4.73255184717038   19.00265815339301    2.62830976427896
H         4.64459381368845   19.73320287529686    1.83672949427808
C         4.84512293949174   19.42273045402212    3.94405716997894
H         4.84996333823206   20.47538258834755    4.18312629967479
C         4.93475485141430   18.47543325010979    4.95192704141982
H         5.00817793688165   18.79196556480500    5.98266464608348
C         4.92182733732943   17.12839264816353    4.64916304064163
H         4.97535889358513   16.39911545721653    5.44802515570457

