95
CSD_code = UVEYEB | q = 0 | S = 0 | Stoichiometry = C40H49HfN2PSi2 | MND = 5
Hf        8.97858207346606    6.55022010570906   12.03631655472200
P         7.87019936704824    9.10058288075835   12.64144005099972
Si        9.99289188706371    7.89517862063526    9.01387057075898
Si        5.94769954456999    4.95876257867659   12.65534814532587
N         8.77885058725208    7.59334272468577   10.18781681107630
N         7.24387913504559    6.00239451908381   13.09714867140829
C         7.08033496189159    9.68807206139731   11.06429403358850
H         6.28921784470852   10.40609652792387   11.30274291679685
H         7.85592901349395   10.19261760022975   10.48134970066703
C         6.54709427300516    8.54531746940260   10.25975237846789
C         7.44534753873356    7.56518986417551    9.78920760636750
C         6.96217446151692    6.62106532221565    8.87575440023527
H         7.66235242483533    5.91961507337747    8.44526672031361
C         5.63171906061859    6.59374450271091    8.50477089944442
H         5.28735548814242    5.85132983826932    7.79977497347079
C         4.74333642040879    7.51699751656309    9.02845224667075
H         3.70113252257762    7.49480446162955    8.74860125719710
C         5.21239082203686    8.49444065361213    9.89070657904800
H         4.53294777428076    9.25018149495914   10.26251758698915
C        11.62153811774268    8.07156876510948    9.98955851744308
H        11.60645210265997    8.92944849403978   10.65290745885566
H        12.44858013786023    8.21213039192171    9.30246432165881
H        11.83331795540632    7.18765473747641   10.58370229216035
C        10.26570731185929    6.56760275172163    7.65079351387669
H        10.28995334296664    5.55895727274154    8.05368390581531
H        11.20692969229031    6.73317253256248    7.13553588700465
H         9.47930913335615    6.60497510663894    6.90256188846308
C         9.62501842038842    9.52792640913517    8.07912204396525
H         8.59780831247696    9.54159497988239    7.72642401114313
H        10.27043061172684    9.64217191041780    7.21480740712447
H         9.76818413308813   10.40097175290579    8.70872063877986
C         6.30646860759786    8.66543430552679   13.54633897291609
H         5.77397529246520    9.56275203789427   13.87130386734209
H         5.69481701650152    8.12658123468772   12.81557045942910
C         6.63208786607749    7.75735949839063   14.69244790719953
C         7.16379728052443    6.48356661099482   14.41538073981305
C         7.49878297197308    5.65949483168533   15.49100263998504
H         7.92059562100134    4.68876155314989   15.27907089490974
C         7.27894484802726    6.05638530683722   16.79450376346957
H         7.53139656894066    5.39116395743179   17.60648978231998
C         6.71640291153336    7.29258382123852   17.05853783798442
H         6.51917054745434    7.59923340020740   18.07442505390319
C         6.41295565197363    8.13752485862993   16.00649724271772
H         5.96690904808723    9.10168616263167   16.21326695024131
C         5.55230372913053    3.58247592118727   13.92947247913941
H         6.38269231801256    2.90194530826390   14.08935094883419
H         4.70407046896572    2.98873525549683   13.60351223689609
H         5.29913735000508    4.01783114879152   14.89106096701081
C         6.41692959198131    4.14146014380041   10.99784733550154
H         7.06395092674509    4.78836290992127   10.41110920000359
H         5.52059316783127    3.96480523562967   10.41401631894174
H         6.90440253013720    3.18159883188241   11.13232164627591
C         4.27729341768725    5.87447773979637   12.41071590304410
H         3.98899212928388    6.41839986576070   13.30596677865147
H         3.48310250733526    5.16642601125564   12.19511065235135
H         4.31478798107431    6.57711040933293   11.58283971209183
C         8.33480418719998   10.74768353708008   13.29765937623772
C         9.26314712463434   11.47526922829602   12.55444626553821
H         9.64426908577350   11.06058736386224   11.63007729859886
C         9.70650487201657   12.70787592428776   12.99319317896137
H        10.41925430145376   13.26627835552242   12.40405894896088
C         9.24455194041093   13.22238234274267   14.19433066236727
H         9.58989883399133   14.18526356606168   14.53974324620638
C         8.35305883562330   12.48852267742432   14.95775632932034
H         8.00800150788964   12.87602331112053   15.90529814829427
C         7.90538153164348   11.25483990146607   14.51799065068680
H         7.23568212663389   10.67991276301849   15.13742216618173
C         9.92886958127157    4.70793265232572   11.19380671204379
H         9.17497230355688    4.10620990070079   10.67631075446127
H        10.73214110758350    4.94566505408207   10.48553890431105
C        10.46625705336289    3.95529345317018   12.34313244608029
C         9.60058870008505    3.29569140003899   13.22789986131350
H         8.53409554759861    3.34389726212934   13.04474127784749
C        10.08600455125248    2.58054890162755   14.30410949327235
H         9.39884294076463    2.07718915915631   14.96990574975473
C        11.45137824734881    2.49888608216833   14.53543077127787
H        11.83027510067002    1.93787363267741   15.37627702376107
C        12.32378008456460    3.14269131240724   13.67332708476526
H        13.38973097500994    3.08208118408135   13.84139193284642
C        11.84031804698840    3.85722904905647   12.59256539695372
H        12.53705188063186    4.33972261593636   11.91890666845151
C        10.73942608128428    7.29842794626455   13.19113853593808
H        11.62254384432929    6.69150376850588   12.95429621637476
H        10.92221225325333    8.34005048551038   12.89276710013840
C        10.47100379364375    7.23248295439768   14.63671014487261
C         9.98896528694889    8.34173168571409   15.34366350416509
H         9.80559967433309    9.26853324983919   14.81477907890721
C         9.79852826825799    8.29549428741979   16.71009617702188
H         9.43486290167263    9.17202327643533   17.22754739654254
C        10.09461668671365    7.14495095143830   17.42100710125113
H         9.96268388396861    7.11627304358753   18.49216909650755
C        10.57547158325668    6.03670878481792   16.74223976697467
H        10.82066005986980    5.13529081003583   17.28574705664317
C        10.76012451192942    6.07700621430017   15.37581718039739
H        11.16321587971424    5.21348663029022   14.86762701496072

