114
CSD_code = UVEZOM | q = 0 | S = 0 | Stoichiometry = C49H58HfN3PSi2 | MND = 6
Hf       -0.61215950228962   12.28126586041668    9.07273230060366
P        -1.51177631123795   11.67438066345237    6.39051138884944
Si       -0.09572596910186   15.56190144128666    8.67643413832661
Si        2.23954267584800   10.42971350603425    8.71018521467270
N         0.05864309175379   13.99259963076231    7.98215633988585
N        -2.66576067082673   11.11134763968402   10.14657378188999
N         0.52973333017468   10.60004362593782    8.56331567376830
C        -0.72464313093297   13.02263179557997    5.38701609354297
H        -0.81148187410641   12.77642955831765    4.32410016636899
H        -1.27039122091861   13.94895338396759    5.59399827429404
C         0.70845290732057   13.23787305331092    5.75795342411141
C         1.03937975428927   13.78817950507996    7.01326354895556
C         2.36929955113019   14.18327548498682    7.20198473380441
H         2.63090243076048   14.68293758338041    8.11904902973030
C         3.34181834506023   13.95567695272866    6.25019731425314
H         4.35856783536224   14.26830124162592    6.43931562062351
C         3.01910573114980   13.33392032382954    5.05627608326049
H         3.77586396254976   13.14023097845731    4.31155673021583
C         1.69856808599252   12.99882609178029    4.81654814359479
H         1.42312024884895   12.56546724505600    3.86399329598879
C         1.33557855384541   16.27179752388211    9.75703595934183
H         1.81374698797030   15.51848503645615   10.37783072874046
H         0.96091876490898   17.04612368863265   10.42039272922025
H         2.10735066836520   16.72617974755763    9.14257351018928
C        -0.33669209980023   16.84935997803394    7.28035817826433
H         0.48306947426828   16.79734510319385    6.57017844250623
H        -0.36938021563095   17.85912610335058    7.67483948342282
H        -1.25719803121431   16.68065083223507    6.73244369060678
C        -1.63637584019408   15.49387795970142    9.80644031041473
H        -2.12528201886528   14.51967192984875    9.77658692078469
H        -2.36536829488127   16.23466604883350    9.49854828496198
H        -1.37690098549049   15.71487129328508   10.83566183474649
C        -0.40804451016070   10.25516117674488    5.89158137213666
H        -0.65981027992659    9.90476082642229    4.88706171189123
H         0.61240372459251   10.64917163955844    5.90409308837300
C        -0.54311225316082    9.16206803403916    6.90676035091209
C        -0.14215256518638    9.41677473709966    8.23327351342086
C        -0.33825784053154    8.41290887397521    9.18548847060295
H        -0.02939666693477    8.60827858704292   10.19967355648489
C        -0.88241986132378    7.19186535422428    8.84026020689772
H        -1.02109229252870    6.43358631531721    9.59686949738029
C        -1.22611324399567    6.93021464384077    7.52438749271037
H        -1.62003172211017    5.96564083402046    7.24089425215675
C        -1.05918404460528    7.91931711865832    6.57045760033495
H        -1.31738250721153    7.71567208804459    5.53916394396948
C         3.08326976580256   10.13544369258521    7.00885351627736
H         2.66643443480003    9.26619119839713    6.50785814992595
H         4.14597608810705    9.95528445992233    7.13591596859155
H         2.97875640949712   10.98991140859579    6.34633320693103
C         2.90193819149502   12.05090103934506    9.45999800031497
H         2.12000207498923   12.80458011752979    9.54979149121657
H         3.69416139656190   12.45455751036706    8.84098070281589
H         3.31779518119072   11.87132154826356   10.44411203374444
C         2.81642606689194    8.97135754493889    9.80735711130736
H         2.47454921890980    9.07475134274150   10.83221949442653
H         3.90009183630109    8.91333581257986    9.82805950319372
H         2.44460064430988    8.02538185130252    9.42656498079917
C        -2.98358538088936   11.33248496643027    5.34678060392308
C        -3.62840761769406   12.32818940575489    4.61768093585718
H        -3.23867544307386   13.33430440150430    4.59621318409652
C        -4.77669729372738   12.04245205108376    3.90076596662517
H        -5.26155552501984   12.82541057358904    3.33624234615164
C        -5.30609138340687   10.76346509759298    3.90653795721892
H        -6.20334324396749   10.54416365933143    3.34745158289143
C        -4.67894583531411    9.76867487347198    4.63837396581179
H        -5.08638976087718    8.76822762907855    4.65299829664857
C        -3.53352728413538   10.05250472146225    5.35825391099778
H        -3.05664224696439    9.27400739833183    5.93312809799179
C        -2.84134588359280   12.07545455113605    9.31601181913489
C        -4.28375116249267   12.38444753112741    8.87633038299883
H        -4.99138698125747   12.02882970266638    9.63435247032498
H        -4.44971767090175   11.80107274713692    7.96202077195853
C        -4.51785214827503   13.83027511993904    8.57470743295619
C        -3.85482913678525   14.43121627518388    7.51053120546586
H        -3.15990813372118   13.83540588175392    6.93349608447454
C        -4.08087667079067   15.75687021197329    7.19564112736480
H        -3.57809600250963   16.20879122600144    6.35276836303559
C        -4.95868147207452   16.51126959386925    7.95726162566526
H        -5.13763763293861   17.54780117990112    7.71252573891407
C        -5.60296745697213   15.92989288342285    9.03544010014518
H        -6.28254259746440   16.51490978936399    9.63792959451939
C        -5.38653348051103   14.59722027377877    9.34018984650587
H        -5.90192767985943   14.14683638467440   10.17706025181503
C        -3.66358474675711   10.31670677188607   10.74193736506340
C        -4.19418795692683    9.20490099659811   10.07730631817244
C        -5.05650262702708    8.35570529592553   10.75482813778764
H        -5.45732640980508    7.49633790945990   10.23614686104471
C        -5.41335094175229    8.60049049676809   12.06668163599727
H        -6.08669399636804    7.93234620085676   12.58249572275183
C        -4.91059106914474    9.71712900637758   12.71091260892993
H        -5.20061240756528    9.92545134997953   13.73104705227184
C        -4.03747254875625   10.57943025164661   12.06956317826166
C        -3.86980070645873    8.94067686492236    8.63783681120374
H        -4.67120530947762    9.31601169516698    7.99845730947643
H        -3.76794362521740    7.87279580786785    8.45781634407893
H        -2.93960987500644    9.43332281790000    8.35511173034960
C        -3.51513398914321   11.79370121835802   12.78022808034781
H        -2.47777814537385   11.64097374031832   13.07849651353626
H        -4.10183793614674   11.99189136210875   13.67432419737491
H        -3.55580815757011   12.66945944047155   12.13223296989749
C        -0.12664617343972   12.82925910674281   11.17806139133350
H         0.42751916433581   13.76981847960536   11.28415728503984
H        -1.11989500132364   12.98276875908595   11.62074820749134
C         0.56939959375368   11.75944003997439   11.92958039982332
C        -0.02383814416469   10.50176560350515   12.09614860460725
H        -0.99023305127653   10.31363248557117   11.64709214154902
C         0.59694204560594    9.50993356725527   12.83007711159649
H         0.11376261168959    8.54983158438080   12.95000067262166
C         1.83341058017884    9.73669050203058   13.41614841866394
H         2.31831411341494    8.95914760358128   13.98761130503461
C         2.43351982464306   10.97536042152035   13.26774719506357
H         3.39098763173255   11.16888284245181   13.73098347802653
C         1.80659646912459   11.97318267238719   12.54492277789902
H         2.27688242956645   12.94452840949542   12.46534392443294

