55
CSD_code = UVIDAG | q = 0 | S = 0 | Stoichiometry = C18H32ClN3W | MND = 9
W         2.50640813644056   10.19408330918802    2.16706507650848
Cl        1.28360733745053   12.03418338746602    3.06346085181698
N         1.77030552515887    9.13466935679032    3.34824730994996
C         4.91606297017543   10.04329312100650    3.17341058067163
C         6.17261014618538    9.90298396001669    3.99460987675353
N         4.36991297927219    9.10669682048373    2.40647730823545
C         4.55452635016844    7.67024933820534    2.58963472162255
C         4.15266019527679    7.24003653023311    4.00216108432047
C         5.94505693618115    7.14422109957061    2.18996891150360
N         4.22482382699903   11.16823848630084    3.08628768563655
C         4.62944923632842   12.38148168129844    3.77954433845828
C         3.94325721657931   12.45018507069395    5.14847920809005
C         4.27655346468443   13.59898002776331    2.92307417716156
C         1.77650846730535   11.34771795771768    0.14418616171148
C         0.90575374992472   10.25316557627681    0.51893486527953
C         1.62963831212773    9.03224413715527    0.33491683136975
C         1.31419922219278   12.76081316289917   -0.04280295455344
H         6.58231782087645    8.90465434485894    3.92383771999702
H         5.96267227070661   10.13020695201973    5.03816552585941
H         6.92309801002414   10.60856688651991    3.63698896312367
H         3.81881657099896    7.22639252823815    1.90718924551393
H         4.07886849832137    6.15721727246106    4.05627738938391
H         3.17453741831794    7.67930237894724    4.21239820635820
H         4.86267017113515    7.58292082400529    4.74950686433359
H         6.62021124116687    7.09071487658272    3.04050319929070
H         6.39478105294804    7.77699022182880    1.42816895797726
H         5.85139196843095    6.13869164613830    1.78715446739204
H         5.72001122111663   12.37182638492406    3.92831150595891
H         4.27537819726524   13.33047408931277    5.69333281560911
H         4.17209136786068   11.56147687241828    5.73442730700460
H         2.86482255261089   12.50032753075616    5.01484237419541
H         3.20153795653821   13.63421756709233    2.75875597187947
H         4.78846212054403   13.54503263068536    1.96305900372895
H         4.58556423200040   14.51055553954137    3.42844727769150
H         2.13886128976493   13.41211253965430   -0.32399327123513
H         0.86463938270499   13.14760661622369    0.87384611663374
H         0.56196056822002   12.79654706393289   -0.83281431328190
C         3.03541006098691   10.81316820539518   -0.16332949472183
C         2.96490095437261    9.38602170087216   -0.04136440104975
C         4.23462160849092   11.54890141607231   -0.68431131403333
C         4.00578942899231    8.47250173518870   -0.62432470025700
C        -0.58418452386123   10.36453259170052    0.70810689175226
C         1.01162776568965    7.66016608723678    0.34819313218094
H         4.32103032951026   11.41395869318126   -1.76529019798638
H         5.15377446513511   11.17729178630394   -0.22934926990396
H         4.16178213240757   12.61580071593854   -0.48293596669614
H        -0.83618663322195   11.29813551411816    1.21034023457439
H        -0.94896725426647    9.53869720019199    1.31688188251080
H        -1.09258163153681   10.34014498690616   -0.25889299003169
H         0.27251813341651    7.57887631501072   -0.45118788690010
H         0.51574576426716    7.47737008348807    1.30083609549913
H         1.76354215258739    6.88858805416124    0.20103838321194
H         3.99763661462205    8.56960361356228   -1.71279332371792
H         3.81449668614043    7.43142873978612   -0.37734040822238
H         5.00361596226159    8.73173477167872   -0.27333802816010

