30
CSD_code = UVIKAN | q = 0 | S = 0 | Stoichiometry = C13H13ClN2Pd | MND = 4
C         4.76587883397571    0.26859034690650    6.30866593880335
H         3.98782764990497   -0.16763117935666    5.67854548900008
H         5.08816688890474   -0.49206022120617    7.03537990696849
H         4.33711662462364    1.13273581709809    6.83905251834107
C         7.13190949483000    1.52723567411844    8.11290441476853
H         6.10609693621052    1.27106840861395    8.34083553582942
C         8.01386362531367    1.81956905154497    9.13412051247942
H         7.67934693321807    1.78761620816380   10.15849125495289
C         9.33016462257081    2.15426094158319    8.82281569334472
H        10.04249579508795    2.38253982576163    9.60011587484175
C         9.69284101310214    2.19014681307772    7.49490279487074
H        10.69782515097723    2.44772314316358    7.19742937284674
C         8.74744029435837    1.88650617894874    6.50807147194079
C         9.08273374827975    1.95506594424777    5.11106398149186
H        10.08166348832250    2.29617535561758    4.83213457391502
C         8.40066174032391    1.74525515367358    2.87111329026135
C         9.59676723406382    1.33544472858140    2.27811781239463
H        10.38961105412237    0.92863467872749    2.89018669393098
C         9.73396492303341    1.39082471590065    0.90495049114606
H        10.65275383938524    1.05554731911798    0.44642842191950
C         8.69784077560027    1.86540817547317    0.11598651295638
H         8.81278953248857    1.90299513740446   -0.95683075738277
C         7.51063806457542    2.27779344703576    0.70210777848986
H         6.70081549926832    2.63903846852921    0.08687138145718
C         7.35339819849654    2.21370542698411    2.07131438603654
H         6.43219953584926    2.52680696120005    2.54998849211793
Cl        5.46575837528541    0.04018878372027    3.44822375643411
N         7.46882299388044    1.54635959239386    6.82121412998551
N         8.17857947648078    1.67637924160570    4.23744729975112
Pd        6.39212765746968    0.90927586136572    5.23045097610487

