60
CSD_code = UVIQEW | q = 1 | S = 0 | Stoichiometry = C18H35CuN5O(1+) | MND = 5
Cu        2.55483339043933    6.17537340113755   12.52126116119015
N         2.32301101866362    7.95179130270974   10.49077655920692
N         4.56737748213072    5.96538202541707   11.62992253060925
N         1.14744147460625    4.51772862945199   12.40785465260126
N         2.26865454676385    7.70134018413000   14.08350167986965
N         3.40667905235859    5.04090634843318   14.09928535089369
O         1.76862118443010    6.88639670040603   10.94537971530715
C         1.56910345711196    9.09877579871649   10.46374400763809
C         2.22348863624765   10.26203478365580   10.02281973907566
H         3.27233981834252   10.20369138139633    9.77817762784690
C         1.52500133351885   11.44403962315841    9.90933069755150
H         2.02697758211782   12.33714193591770    9.57045451044735
C         0.17191658838578   11.48917155180198   10.22284840939473
H        -0.37216154027322   12.41589201747742   10.12595835840062
C        -0.48808336888063   10.34279247859056   10.65091273806583
H        -1.54244083658107   10.38327389462088   10.88003602693600
C         0.19799504709624    9.15650890834849   10.77596513483275
H        -0.29934702971896    8.24971305143689   11.08998280983372
C         2.81268531278981    3.70317352588832   14.04032692396349
H         3.36055678936546    3.11854931449853   13.30233874454121
H         2.90880993988770    3.18801298039846   15.00568911632697
C         1.33687179332700    3.75486328624305   13.64091094246748
H         0.96039582578579    2.72770607063012   13.53663087424576
H         0.75740778979014    4.23599288511970   14.43128441641825
C        -0.23118255780673    4.97345971050344   12.26839874470507
H        -0.92451836179884    4.13107292744910   12.16375627089870
H        -0.29567454593798    5.59525130130432   11.37864024051047
H        -0.52545154087885    5.56445228289567   13.13181705682701
C         1.48640513070839    3.72443955167441   11.23036032415372
H         0.78262827091200    2.89435382117342   11.09552904336962
H         2.48870114906880    3.31616401088709   11.32125509086925
H         1.44605659773002    4.36948940361822   10.35555523282123
C         3.06822065207608    5.72258556710627   15.34991264711248
H         3.75039450026945    5.42508964138847   16.15791661110933
H         2.06358753480285    5.42249477812674   15.64544707851108
C         3.11260998396072    7.24137869864889   15.19130418151554
H         2.80639686660009    7.70858801092093   16.13760838251837
H         4.13647790079899    7.55825501709574   14.98576225176433
C         2.66582592289425    9.05300086672711   13.69379539800232
H         2.59527667974827    9.74586557943958   14.54050568354718
H         2.01226191496789    9.41088916183374   12.90268637402463
H         3.68676621133453    9.05420508605856   13.32150005647800
C         0.86288737776214    7.73627074757596   14.48377760055182
H         0.69842660612576    8.46620876118291   15.28597092784836
H         0.54392255553885    6.75964721045905   14.83609223983957
H         0.25446738626512    8.01762589069077   13.62750993869773
C         4.85598028238900    4.99464554477400   13.88912569508288
H         5.30222434216857    4.14375142048743   14.42114995948214
H         5.29238009224236    5.90261314186004   14.30381156332389
C         5.21063230444275    4.90358004272719   12.40448487596517
H         6.30412855152687    4.93887835528605   12.29824131561650
H         4.87459660139855    3.94456540947969   12.00576287726151
C         5.28121104361893    7.23167205981543   11.75903591233657
H         6.28005551885711    7.17268047287986   11.30954449406810
H         5.39122087114412    7.50452112277348   12.80541488804970
H         4.70778909994920    8.00177450309658   11.24556330322733
C         4.52373616199362    5.61338657861445   10.21207906967967
H         5.53316475977020    5.49828845936544    9.80081031080243
H         4.00823571882948    6.40268169150291    9.67213877571499
H         3.97842312887560    4.68432109082014   10.07154285598324

