84
CSD_code = UVITAV | q = 0 | S = 0 | Stoichiometry = C40H38BO3PPd | MND = 5
Pd        4.34553623731476    6.70477115911785   -0.54110203467569
P         3.93516892835032    4.69768394455202    0.62591437223751
O         6.82337487839769    7.49029883055319   -1.13380571372071
O         7.14193079764269    5.35303661216014   -0.46429670509729
O         6.10528428258672    9.32014546077307   -2.26436825119740
C         2.73233077679268    6.06050402444689    2.73921976687497
C         1.78428138735102    3.70589135500838    3.95556292395577
H         1.40945424929014    2.80289121079537    4.41438622855705
C         2.45745845858807    3.64469777764079    2.75109728281050
H         2.62269160605554    2.68840145305659    2.27731375568445
C         2.67872495131578    2.37630875442312   -0.45298762242848
H         3.18162905143070    1.79812420754616    0.30923247317161
C         2.93622086334941    4.80495584545637    2.15069977566773
C         2.27045101809347    4.46732754483109   -1.56383915606236
H         2.45031763186126    5.54426783553177   -1.65387949682186
C         3.99957551183876    8.34769936203421    3.05449633729950
C         1.42554484435926    7.45253138743510    0.11771709265673
C         0.46519656322281    6.58566235479564    0.88435680478058
H        -0.53540970910196    6.68510891232675    0.46875425439351
H         0.43367680930505    6.85714401101662    1.93539331728586
H         0.75281093627550    5.53621276503158    0.81621903216469
C         6.52519944273805    6.13858981617866   -1.14375208665010
C         3.43434009619821    8.81705940650931   -0.10577923892951
C         6.02568432717771    8.82123710859159    4.28035942287473
H         7.05906643245296    8.58577477062986    4.49355202346861
C         1.45184734103272    3.82619257880502   -2.47563713230966
H         0.98202305165590    4.38938337488026   -3.26873650904671
C         5.20069116073853    3.47038531442126    1.07105034245791
C         5.47785932128850    5.90949824759850   -2.14480477570896
H         5.23034809340884    4.92959267495600   -2.53288092018274
C         4.09939559542119   10.17924223381560    4.62474017746315
H         3.61579722892113   11.01338789117749    5.11492427202259
C         5.12055762004378    7.14961106616119   -2.64934042671121
H         4.49108150939045    7.36866310386268   -3.49989470967780
B         3.15895392819660    7.43292148930980    2.09338689196459
C         5.60891204381775    3.27250946525837    2.38569221039413
H         5.12612641926394    3.81052727204898    3.18978392842923
C         1.86344207875741    1.73787154023112   -1.37047216539492
H         1.71606431071027    0.66978543824010   -1.30303951916333
C         4.62206084706423    9.56723390406135    0.45345873050570
H         5.04970402951916   10.20889009444013   -0.31495927695226
H         5.41134913029439    8.90089370092697    0.81599729163809
H         4.30939208111003   10.19210099680981    1.28847344957076
C         6.62275177698341    2.37595963057148    2.67025164014681
H         6.93229209187917    2.22610143827893    3.69450768602830
C         5.33467784813172    8.05559882656667    3.35360451059772
C         2.09793422755085    6.08187804431936    3.98602303908546
H         1.97419077607406    7.02797143158296    4.49255527601199
C         5.99328586265074    8.14029600271735   -2.04386628213283
C         1.35370911383874    9.12963117093029   -3.28676338821995
H         0.54994579908981    9.86169815743393   -3.20384211681369
H         0.96793736444691    8.27452744712015   -3.83934150344623
H         2.16812863975869    9.57940051545422   -3.84902383124238
C         5.41870295474056    9.88115420828498    4.93607157025367
C         6.84702098612860    1.87743846604312    0.33593964303300
H         7.33405745766818    1.33980928005164   -0.46400486157222
C         2.98509403302043    9.20417591346822   -1.37870210696662
H         3.57232731410547    9.92083986872883   -1.93862850778592
C         1.97890311939718    9.81930157960428    3.34916131179795
H         1.63086530487550   10.62751118760529    3.98850743704844
H         1.29994605694430    8.97502287690745    3.45573042950352
H         1.92145798812355   10.15026062273567    2.31206569848292
C         3.39142688100835    9.43624213525529    3.69406515180746
C         7.24415551422294    1.67880469654184    1.64841366179196
H         8.04047085413460    0.98491368034966    1.87360720801570
C         1.03264470384965    7.86080540306782   -1.14275436734568
H         0.08506231707337    7.51668958113579   -1.53558346097014
C         2.66715181914385    7.88490425844225    0.67354116536513
C         1.62142765075658    4.93116223280950    4.58290035831056
H         1.12799253444619    4.98654205563716    5.54225647998865
C         6.03781671479739    6.92678650231784    2.65655869021094
H         7.11226332591596    7.09335963489968    2.62395108065453
H         5.67828007845388    6.79837910510836    1.62296256812088
H         5.86092324215846    5.98959813727248    3.18511049091399
C         5.83551488910491    2.77147798441619    0.04714185981238
H         5.53062389312169    2.93228293237779   -0.97766538132035
C         1.24347379728433    2.46008422905462   -2.37702136685779
H         0.60885851670290    1.95609077762023   -3.09080792457697
C         2.87976709052414    3.75094169200496   -0.53453360640990
C         1.81192690374561    8.71465046165589   -1.92291277801051
C         6.16386522483250   10.67907763365972    5.96260869207400
H         7.23147870125073   10.67548169767418    5.75562955206007
H         6.01081287876588   10.24820144199862    6.95310511992626
H         5.81168758965058   11.70803076091556    5.98587474477110

