65
CSD_code = UVIXII | q = 0 | S = 0 | Stoichiometry = C32H27I2N2PZr | MND = 5
I         2.00236266378787   -0.44715060499131   15.68213419862810
I         2.88607828911296    1.14068819660457   11.90773188226716
Zr        2.59635303998349    2.09675550545552   14.58848757093051
P         3.11543051589194    4.58495870972616   13.54109661438707
N         4.48486548187240    2.33368402950616   15.26753765494592
N         1.03832570749906    3.29678034805013   15.17257383402605
C         4.90575958263696    4.86662453058904   14.01140774975279
H         5.28288366309027    5.77664699684393   13.53674462087729
H         4.93815054100784    4.98036720543538   15.10273496223462
C         5.67942449254587    3.65809191266487   13.57509005566866
C         5.41843966273254    2.42963731221831   14.20834467383872
C         6.06027981892766    1.27303552503090   13.76368014089462
H         5.84084274526044    0.33328892833680   14.25985907647260
C         6.95596578870884    1.33206626269160   12.71143017487003
H         7.44083244046139    0.43122671179057   12.36970405791739
C         7.22536934451059    2.54469903552543   12.09861955780961
H         7.92584180335684    2.59336932600281   11.27960716524568
C         6.58728498089561    3.69695533273361   12.52632052339117
H         6.79013025604856    4.64065456389270   12.03935421712820
C         4.89028303427126    2.65947409600287   16.54292137331433
C         4.06159460784708    2.32997041186775   17.62848906627626
H         3.13103126759163    1.79519798404872   17.45116485261094
C         4.43800751851954    2.63459960728446   18.91996917984978
H         3.79188881750704    2.35482722802890   19.73864498564657
C         5.63875376138050    3.27724135015682   19.17459945635898
H         5.92602399075773    3.51628643241068   20.18649361276014
C         6.47801077054614    3.58373396078310   18.11647386083077
H         7.42846176344837    4.06325236489396   18.30130596481153
C         6.12221619887909    3.27553754987283   16.81980421536355
H         6.80398055170107    3.49017202283948   16.00788026941820
C         2.29524068687447    5.77649711280858   14.69748292813217
H         2.83474207404302    6.72945032633712   14.70378167915180
H         1.27822842582277    5.93590182741563   14.31610184915314
C         2.19874602519857    5.20595702821284   16.08535460501400
C         1.46516898635289    4.01572504476746   16.29078986496721
C         1.23477937078802    3.58402499866312   17.60543456464054
H         0.65675603398253    2.68145399260394   17.77220712844380
C         1.73291729754079    4.29757772343322   18.67829235977064
H         1.53045019918707    3.95896561767825   19.68282349682799
C         2.49950846332009    5.43154454864323   18.46860827169709
H         2.90706452723375    5.97576503507733   19.30564234752332
C         2.72695982647573    5.87678601293354   17.17717473439230
H         3.29767130111599    6.78107470007196   17.01548368548154
C        -0.22044006700340    2.71841705696413   15.12476506533777
C        -1.29166185119579    3.10322396661140   15.94401817315478
H        -1.14866478674957    3.88988622451479   16.67189394852851
C        -2.52744688290805    2.50245418540564   15.81158510251265
H        -3.33387054354482    2.81263401686253   16.45995304171627
C        -2.74124693112052    1.51672929041541   14.86238824994989
H        -3.70669284270128    1.04443638352188   14.77440216493272
C        -1.70810347130183    1.16044621454925   14.01038397701851
H        -1.86666795124066    0.41483257560828   13.24568083152873
C        -0.46725523394448    1.75535412106131   14.12791717621072
H         0.31853326953411    1.50431325119657   13.40931909322917
C         3.09200478953176    5.45099326418667   11.93116081635445
C         3.78066090501950    4.83430631900198   10.88658280336225
H         4.28668187835026    3.89350600950252   11.05582526971385
C         3.81827207430975    5.41785210456255    9.63489367662956
H         4.35497341092683    4.93178099627551    8.83464331086859
C         3.15827747956308    6.61495804714815    9.40811000568742
H         3.18241417536969    7.07019367077878    8.42965581296693
C         2.45954494376530    7.22281228679243   10.43715879028867
H         1.93839876457620    8.15252988554123   10.26215603735456
C         2.42015041455168    6.64509545376313   11.69447312878207
H         1.86463213748936    7.13324787078527   12.48095044014001

