65
CSD_code = UVIXAA | q = 0 | S = 0 | Stoichiometry = C32H27I2N2PTi | MND = 5
I         4.95717684387744   11.58015648848282    2.90653820730341
I         2.85298247174533   13.74200959766266    0.24573527492061
Ti        2.32383292481969   12.08252033602304    2.31303330944463
P         1.88107778731320   10.55633030970021    4.30374437193457
N         1.54268598220360   10.65520913413729    1.40313543914385
N         1.13857851444671   13.13630842095739    3.31789934160212
C         1.49895925173732    8.87984775502391    3.61432192054206
H         1.55779458815097    8.10031663339026    4.37855165646099
H         0.46815506500027    8.93770195753253    3.23632274075181
C         2.45715793193189    8.64927125792172    2.48057932028721
C         2.44277285037471    9.56502061891668    1.41327528375997
C         3.33922074170372    9.41234740370257    0.35527836287921
H         3.31136809049219   10.12610516236441   -0.46225268509695
C         4.25246028834528    8.37351196715275    0.36253858499303
H         4.95403169092237    8.27241103332646   -0.45056197030789
C         4.26797053347517    7.47229624947559    1.41359670382427
H         4.98124137070664    6.66304728563026    1.42222689486780
C         3.37412942832065    7.61013375515164    2.46271640103891
H         3.38751586174887    6.89761042369101    3.27587761260386
C         0.34948927232618   10.49388939575125    0.73032539879361
C        -0.17793377140649    9.21999246463250    0.46422592045513
H         0.37856944154302    8.33990853148889    0.75935907972178
C        -1.38869294357612    9.08140063902624   -0.18170420441868
H        -1.77552874001342    8.09038655792621   -0.37055358013557
C        -2.10135111700169   10.19557836673620   -0.59328666332699
H        -3.04669052396676   10.08073111663853   -1.10048188785210
C        -1.57438514561626   11.45686956459417   -0.36920145484472
H        -2.10308289418365   12.33249523963904   -0.71539004596349
C        -0.36727723480153   11.61168743324609    0.28038094718947
H         0.04690406968811   12.60310725943616    0.41275127975740
C         0.26155398068222   10.99039854349178    5.08889386385744
H        -0.19499937502551   10.09183049165216    5.51872477389085
H         0.47567074389817   11.69186237435565    5.90532865790743
C        -0.65432119180493   11.64354317545650    4.09223272996219
C        -0.21114453347633   12.73767877553760    3.32398395057351
C        -1.12955573085374   13.44069090258523    2.54327812520460
H        -0.78878971133810   14.32129190411068    2.01208484378475
C        -2.44740166927861   13.03255969336023    2.46151828364315
H        -3.14579740340444   13.59030744418803    1.85705443100003
C        -2.86370191258297   11.90770423576986    3.15128567537968
H        -3.88517693361062   11.56886974315509    3.07476484956794
C        -1.97339892231227   11.23072265579329    3.96673401004101
H        -2.31378796662207   10.37823395320897    4.53856434174000
C         1.58346437118929   14.01704396752352    4.27726915157958
C         2.89594255706235   14.51967470726913    4.20616721594145
H         3.52741334112952   14.28695116011144    3.34996556253374
C         3.38225171447960   15.35280982279180    5.19270311911513
H         4.39494687901748   15.72005060754423    5.11977308775996
C         2.58235850859366   15.72397610113103    6.26314550930632
H         2.96959593641213   16.37235772427904    7.03335373383409
C         1.27303663632674   15.27495170825562    6.31997881973186
H         0.63041866970559   15.57941050597239    7.13338666733456
C         0.77213330651733   14.43642993729314    5.34451868152119
H        -0.25727103447456   14.10462136226405    5.38995412853364
C         2.95404543484456   10.29409024027148    5.74703360041401
C         3.19854683682778   11.41894558655744    6.53619633132178
H         2.70964533811484   12.35952457195378    6.30387517918092
C         4.07679228666351   11.34592127599177    7.59863618808901
H         4.25797281652934   12.21992944616090    8.20609669688289
C         4.73623781641724   10.15729973903171    7.87000062126763
H         5.42922494316720   10.10126108805945    8.69551365419237
C         4.52546685295978    9.04985335651530    7.06696185567013
H         5.05906437067759    8.13139276132483    7.26148781700785
C         3.64581823009370    9.11601243267067    6.00092862002133
H         3.51701218316853    8.25419564500495    5.36372366187757

