65
CSD_code = UVIXOO | q = 0 | S = 0 | Stoichiometry = C32H27I2N2PZr | MND = 5
I         3.01921031577555   10.60825433458484   15.80030130353402
I         3.84136419488669    9.15213158281981   11.95549093290768
Zr        3.60367934126132    8.10796730991360   14.60751582324902
P         4.10658015225980    5.65052012688518   13.48548349666529
N         5.50394770723762    7.84840688456893   15.24840524537994
N         2.04108254513098    6.90141033748236   15.16340457009243
C         5.90637362446152    5.35574277524333   13.91037612349404
H         5.96370501502552    5.20932435030839   14.99671886799815
H         6.27413145049943    4.46139489516334   13.39992397574111
C         6.66567031093448    6.57958763214585   13.49168171157952
C         6.41429876570847    7.78785671885979   14.16666597068349
C         7.03856836909329    8.96056208348453   13.73944463226702
H         6.82568240556988    9.88472293947903   14.26700772864170
C         7.90630998675315    8.93740703054436   12.66255451878838
H         8.37523804380888    9.85110002989299   12.33310791714397
C         8.16589958366044    7.74462846460337   12.00792922260399
H         8.84414601764366    7.72414426170498   11.16918944302193
C         7.54597455715834    6.57643540748245   12.41898784357868
H         7.74144003207168    5.64827784667957   11.90012594073630
C         5.93550710884468    7.47985854174084   16.50316801392666
C         7.17696984131309    6.86435285606185   16.73509929716297
H         7.84556072116831    6.68530037920064   15.90373589113480
C         7.55877504627891    6.51234332824029   18.01321930667085
H         8.51637662284084    6.03496025958923   18.16343430619740
C         6.73641458973036    6.77255263246191   19.09682714504360
H         7.04364492969742    6.49856591231290   20.09403286877555
C         5.52647294972549    7.41435939302195   18.88744270227345
H         4.89296241812332    7.65794189294817   19.72730783217052
C         5.12485959657283    7.76365192927912   17.61495662025263
H         4.18746426988564    8.29711141726930   17.47366674682968
C         3.30339491560278    4.43495887669788   14.62849283574364
H         2.28316780991695    4.27966920187200   14.25381992117474
H         3.84570226242846    3.48380433405248   14.61178589740782
C         3.21749018163090    4.97856964695622   16.02808139992980
C         2.47815026127803    6.16004879663761   16.26290101152651
C         2.25211366219863    6.56244092281823   17.58782159948839
H         1.66886537574591    7.45747436395303   17.77649525352088
C         2.76099114347706    5.82953805373123   18.64256422558860
H         2.56196583090100    6.14559182484149   19.65525000961912
C         3.53472272267106    4.70587758828276   18.40445875900583
H         3.95152361128926    4.14737044443019   19.22748255617324
C         3.75731577681150    4.28906637104011   17.10259360065410
H         4.33260621974368    3.39186257708978   16.91885392341089
C         0.77733664620587    7.47092608351386   15.13778750784230
C        -0.28769428554898    7.04380890754596   15.94424488377349
H        -0.13275754481522    6.23477712936978   16.64484448294020
C        -1.53183669729899    7.63134915197068   15.83319813394824
H        -2.33342360053549    7.28791537335388   16.47104068805206
C        -1.75995263295143    8.64594239954494   14.91823684437243
H        -2.73231863993785    9.10691908925378   14.84605672913004
C        -0.73138044802841    9.04795640580333   14.08111342913999
H        -0.90009155389736    9.81885832507908   13.34409230198134
C         0.51803055771233    8.46735355929949   14.17813582750660
H         1.30082891699587    8.75918199003602   13.47249734130386
C         4.05077329875629    4.82500559972396   11.85528286783888
C         3.39138084817087    3.62658180784254   11.60612536607006
H         2.86206099004242    3.11158283696750   12.39363346639387
C         3.40827726898368    3.08022876173769   10.33438868380730
H         2.89710299935956    2.14686034392727   10.14950053738847
C         4.07259876106127    3.72343712235135    9.30388826035427
H         4.08073889543844    3.29162071858087    8.31459629311106
C         4.72027665690527    4.92474465461851    9.54371025525721
H         5.23080077131474    5.43763679873649    8.74299010354029
C         4.70472527213035    5.47723608706517   10.80987997194251
H         5.20140323312410    6.42103029729370   10.99004903251821

