67
CSD_code = UVOBEN | q = 0 | S = 0 | Stoichiometry = C29H31CuF2N4 | MND = 4
Cu        3.83110818901268   -0.44780420453976   13.24151540969471
N         2.21750140401672   -2.86139133012513   12.64017836766737
N         2.76910576435619    0.24905934191131   14.87604318154577
N         2.96645388022382    0.82426375233507   11.85692581810657
N         5.66636373900177    1.82345725829668   13.79610481475246
F         5.67355884188900    1.65244270569153   19.33479069292666
F         6.36692668786436    3.63952853897483    8.57046853603380
C         3.06627619116400   -2.09972999377198   12.86436224023317
C         1.17558956823770   -3.76632508122540   12.36825409500438
C         0.23912749297105   -3.77816418435183   13.57893553330856
H         0.77427196572760   -4.09328992136196   14.47216302769237
H        -0.58183836736247   -4.46731170078034   13.39981785607646
H        -0.16651718316947   -2.78250903204610   13.74808684935674
C         1.79252317008889   -5.14891646141074   12.13404196877936
H         2.47843584747409   -5.12195923841858   11.29020139386958
H         1.00724118133529   -5.86971254603403   11.92297217092852
H         2.33985015435515   -5.47614969297664   13.01529022886318
C         0.44211312614268   -3.27136058501484   11.11923994190025
H         0.03098719338705   -2.27928506706086   11.29596118441799
H        -0.37018761890950   -3.95180229123903   10.87796275542431
H         1.12255565500964   -3.22143834666616   10.27183222027637
C         1.47718930532328    0.14222795356963   14.91489190541371
H         1.00169177056320    0.12254222997741   15.90414589820042
C         0.57265504447189    0.00566237479801   13.85329120275028
C        -0.77217932437629   -0.33818459303117   14.10643822295095
H        -1.16716342542711   -0.58125878529416   15.07827417363291
C        -1.49039032550581   -0.31471994658134   12.91920834422026
H        -2.53393201509336   -0.54851194794852   12.80607841974602
C        -0.62922788472776    0.08714570154114   11.90791855086204
H        -0.89395413258644    0.23330145148497   10.87434084449220
C         0.66491849391983    0.27931099348480   12.43646065227991
C         1.69225728751985    0.77326499088797   11.62132809942885
H         1.34526102068947    1.12927109176117   10.64254256945572
C         3.46694475743934    0.56224138415471   16.02664184282524
C         4.64194065014498   -0.12083286115466   16.35613887086974
H         4.96042368294684   -0.94353332622564   15.73482213682502
C         5.37709525255088    0.23545980604790   17.46734398952030
H         6.28112421002538   -0.29040870722716   17.73147650999753
C         4.94124224570582    1.28830652572925   18.25428559495656
C         3.78409663111108    1.98421617443134   17.95918929387459
H         3.47182947702152    2.80171457890175   18.59042335496598
C         3.04864712820751    1.61455190843789   16.84955442826625
H         2.14904530929356    2.15690373177277   16.59490814941366
C         3.79652222518415    1.51038446801206   10.99086286768897
C         3.46651192573988    2.79972442969958   10.55788395928282
H         2.53625981687608    3.24316754173689   10.88370909586864
C         4.32441014176355    3.51802629296259    9.74739061018267
H         4.07898944470209    4.51604225810862    9.41870224386994
C         5.51710825574244    2.93762663848621    9.35843869245882
C         5.87014670567541    1.66121925098109    9.76289276548414
H         6.80608734050823    1.23671267166356    9.43539462570329
C         5.01222614302090    0.95488415865201   10.57965166151252
H         5.26494421287636   -0.04448178542840   10.89860874133097
C         5.26820259624624    0.75649213758485   13.56427634924486
C         6.01981211325034    3.15490320426679   14.08205029081281
C         4.71964392632618    3.94707993739126   14.24665655514285
H         4.12957890052664    3.89171324793909   13.33424460225504
H         4.94543479429797    4.98864321530042   14.45995226852777
H         4.13181464038657    3.53650560254883   15.06504552330232
C         6.83566442157905    3.16235862890237   15.37718476359160
H         6.25096610178427    2.74713350646353   16.19500166340478
H         7.11756594759137    4.18119826496688   15.62869393737906
H         7.73913255369165    2.56792832336434   15.26114896923750
C         6.84378751729836    3.69040755837583   12.90845905197421
H         7.74079751594862    3.09155936291284   12.76787777245432
H         7.13695887583383    4.71840390457126   13.10368706178244
H         6.26047184149841    3.65879452986320   11.99103458559399

