55
CSD_code = UVOFUI | q = 1 | S = 0 | Stoichiometry = C21H26ClN4O2Ru(1+) | MND = 9
Ru        3.09772434309071   11.11753258146639    1.09709407683888
Cl        1.78789544754219   12.18662546355810    2.71753302086535
C         2.41714261219814   12.61107805569810   -0.04159447663501
C         1.40624700211825   13.02090214008111   -0.92043689840495
C         0.31167719140571   12.29932618741518   -1.59695850292173
O        -0.40601008244133   12.83146639731907   -2.40860208501540
O         0.21010716813999   11.03251679572726   -1.21789290073631
C        -0.87034165749080   10.30267317831521   -1.83394154603950
H        -1.71468997527908   10.98709616301245   -1.96229089014657
H        -0.53953345368044    9.98048453650218   -2.82707472119326
C        -1.26497548547871    9.11799775953213   -0.97541842968667
H        -0.46961209562668    8.37854639470764   -0.93359730715912
H        -2.14417368959329    8.65068511133578   -1.40940443403729
H        -1.51131651750241    9.44842000452033    0.03041544969168
N         3.06131018369357   13.79848136935056    0.20970942509930
C         4.12560004867961   13.80955388480730    1.09084630397133
C         4.82261962556120   14.95303943094072    1.45335552679082
H         4.52810743700848   15.90385811766705    1.04082529770340
C         5.86358663810165   14.81736629644718    2.35279646729043
H         6.42972894820371   15.67685962348388    2.67203078850017
C         6.15484496064296   13.54882972106369    2.84671300898018
H         6.95190561724512   13.40474237787438    3.55751853124005
C         5.40624274576131   12.46531513402884    2.43280176116074
H         5.60649701253150   11.47852539211494    2.82652696843384
N         4.40265573269794   12.57388779892124    1.55604871035875
N         2.55106748620870   14.83323590826946   -0.42159948379915
N         1.55668112697264   14.36453826897424   -1.09908525705122
C         0.77224608354851   15.25672333931313   -1.89641581478965
H         1.18714490400041   16.25583980327739   -1.78135581990276
H        -0.26770238543702   15.23663789892898   -1.56994073060373
H         0.79383217723786   14.94891697172764   -2.94185279116858
C         4.00184791018843    9.43590160652963   -0.19991026084233
C         4.81705676226813    9.50857363771571   -1.46898178903165
H         4.12384233811653    9.53899221063581   -2.31657177041068
C         5.65984229836349   10.78716987880319   -1.49742354551944
H         5.02516445712453   11.65979167330461   -1.32350564183417
H         6.13988008018864   10.89479513254533   -2.46609825962085
H         6.43740715749030   10.76375313184648   -0.73716294600201
C         5.69773961420087    8.26358335194354   -1.61036832892960
H         6.43192500664087    8.20840436891807   -0.81044932444326
H         6.22867570844410    8.29451746756514   -2.55757876783426
H         5.09162739248997    7.36105689701405   -1.58607906728375
C         4.61926537398030    9.43574489804189    1.07190044802676
H         5.70258752427308    9.45870102432498    1.13335988181398
C         3.87274855351811    9.24635910311394    2.25518965747805
H         4.38549411711119    9.12726337102822    3.20327691084211
C         2.47538500525721    9.10576609777590    2.20847683206079
C         1.69455578447236    8.82401778645334    3.44965700785422
H         1.92094933086484    7.81681966252864    3.80220470009232
H         0.62553877703512    8.89983097738702    3.26869274552491
H         1.96027099262144    9.52333338792278    4.24127676895245
C         1.83804193893418    9.19773662835919    0.94620738237629
H         0.76647321285950    9.05730778102882    0.88512914366129
C         2.59097564795155    9.33676491324428   -0.23601186263262
H         2.08649586408457    9.29251290739216   -1.19448316036928

