104
CSD_code = UVOKUN | q = 1 | S = 0 | Stoichiometry = C51H42ClN3O3P3Ru(1+) | MND = 6
Ru        7.36819394723713    9.13399306690088   13.33662253796670
Cl        6.71247588463734    7.09690407938841   12.34917287247938
N         6.46623102399512    8.52334856186005   15.16866132550981
N         9.11924786662910    8.23779556938140   14.12027712407733
N         9.04540709607630   12.33600130774368   16.89606172298359
O         7.12067655234925   10.57295068671109   16.03385552681744
O         9.47777860347145   10.20498278634862   15.28151134722989
O         8.31486096048613   12.32881867316383   14.71417555761087
P         8.04964625384092   10.76969090640939   14.69552094291476
P         5.28628032829984    9.82242032240621   12.50554394210680
P         8.60821649626142    9.88716632068421   11.50969109157755
C         6.50485178852710    9.38388583697239   16.19298794114667
C         5.93312032461037    9.10606677625670   17.42949725196581
H         5.99346089668014    9.85330076741591   18.20311722650647
C         5.32107985182650    7.88191911312174   17.62086763150313
H         4.87168713366480    7.64037041712178   18.57086471557209
C         5.30735707131286    6.97573553248687   16.56965214149259
H         4.85290786936391    6.00456611865277   16.67106423437545
C         5.87890511653270    7.33858364183897   15.36780756453342
H         5.87115915392376    6.66319756501107   14.52049780973590
C         9.86401097267051    8.95528280863911   14.96495473450345
C        11.03506821150947    8.46684522956275   15.53470463019748
H        11.58461578986786    9.10289109134481   16.20801980231858
C        11.44720965773116    7.18896602723166   15.21335259255326
H        12.35365324139270    6.78651921483970   15.63629462471772
C        10.66870530433046    6.43834010067042   14.34190127539646
H        10.94572160472480    5.43423599126535   14.06758908455560
C         9.52075730674536    6.99809921053882   13.82353961356795
H         8.87678797545159    6.44481856177829   13.14970187811884
C         8.84951007068335   13.00990191779360   15.78596045187975
C         9.13661995772066   14.35866546306747   15.62305131282168
H         8.94886649584821   14.84328333259963   14.67901888586560
C         9.66405828565780   15.02658494608838   16.71492141562057
H         9.90488205032081   16.07614773814105   16.64351123960592
C         9.87771465012634   14.32912462908261   17.89673790534397
H        10.28689700947695   14.81953846745028   18.76467060601938
C         9.55182617918624   12.98461911743561   17.93538834600626
H         9.69526054662555   12.38972361581077   18.82636169407856
C         4.37670443021915   11.29233837543471   13.11191381155433
C         3.07366076306176   11.48002035607006   12.64977561555442
H         2.65937082568410   10.78749155105180   11.92967897430288
C         2.32030122978347   12.54304260386405   13.10635131237647
H         1.31486668428555   12.68392629260232   12.73988398473215
C         2.85077721796374   13.42486646000683   14.03675297681559
H         2.25854155210951   14.25291906485057   14.39493237614671
C         4.13838064715724   13.23795500802857   14.50750551751143
H         4.55571071515402   13.91690771595541   15.23631269656546
C         4.89699574662776   12.17482138301867   14.04613602749707
H         5.90469953352301   12.03605852558968   14.41698809123131
C         5.19139829071577   10.03003058007669   10.69444594984181
C         4.89180671330652   11.26374053550836   10.11922786679547
H         4.70990124053812   12.12877168240055   10.73981400730969
C         4.81646767107791   11.39104866291767    8.74454705146700
H         4.58437416625593   12.35278713795243    8.31187509700781
C         5.02489172452043   10.29316074383668    7.92650260755762
H         4.94444352964630   10.39310035284897    6.85484441463392
C         5.34646029001498    9.07054373615713    8.48945519627225
H         5.52474790140071    8.21190807610026    7.85991698919729
C         5.45205048392608    8.94204198215777    9.86255959760515
H         5.75269875468546    7.99447493830182   10.28391567129019
C         3.96695392115134    8.62311468000639   12.93125592895912
C         3.42948511065620    7.68660613059113   12.05790578052842
H         3.76170877583322    7.64027448576990   11.03296518383562
C         2.45213463433082    6.81022453081958   12.49826778396054
H         2.04102007213434    6.08591973004823   11.81152596950395
C         2.00111696978784    6.85899279160597   13.80585640943228
H         1.24062407468898    6.17161784211463   14.14337584672842
C         2.52082164541444    7.80203182084978   14.67763548257731
H         2.16374788583484    7.85830525029222   15.69553835731854
C         3.49651561213639    8.67844192672752   14.24391334170705
H         3.88394305288628    9.43044080307504   14.92244945181112
C         8.52550344804744   11.67362011788575   11.16588385713243
C         7.48757444007664   12.43917759828175   11.67356352954688
H         6.71615033243011   11.95436582653143   12.25581651806831
C         7.43885587280450   13.80282401607615   11.44254116409161
H         6.62430888438685   14.38673687689209   11.84556717099205
C         8.43553823514466   14.41121604290005   10.69937542053055
H         8.40433406426870   15.47489028252311   10.51760394488393
C         9.47881748715457   13.65281167974453   10.18804193566022
H        10.25720544085895   14.12685217918159    9.60918007972661
C         9.52910220630686   12.29147217993480   10.41836396725689
H        10.34844700716927   11.70353002893754   10.02753307228867
C         8.55589385336941    9.13108238251188    9.85359049484669
C         8.65349129000377    7.74305161634509    9.76537254508434
H         8.68938406723372    7.14929727650981   10.66787694051307
C         8.65845832062669    7.12134175733492    8.53073593570586
H         8.73281454135829    6.04577015279749    8.47229339279122
C         8.56177376400220    7.87686338937023    7.37370497636091
H         8.57096321889267    7.39269249817804    6.40891318656983
C         8.43616018391167    9.25345613761336    7.45795214912380
H         8.34087363698512    9.84405438095863    6.55919006562543
C         8.42519218711329    9.88234726891595    8.69001012646163
H         8.30137727096967   10.95356013974821    8.73999775802352
C        10.38423618049657    9.77583518023768   11.94457877152990
C        10.91369482286565   10.77180090819101   12.76489207942810
H        10.29423969067876   11.61270541799084   13.05311347364882
C        12.22437288492853   10.70136649915699   13.19590712417782
H        12.62443789010583   11.48267074167589   13.82495723062764
C        13.02232615806276    9.63225299605826   12.81962807549550
H        14.04630851672763    9.57690274460705   13.15579152469855
C        12.50509955996471    8.64271035553794   12.00153574028426
H        13.12630322664278    7.81433762561895   11.69589763841748
C        11.19282721771293    8.71013715111980   11.56523030159466
H        10.80440269500882    7.93995527728491   10.91560383561734

