35
CSD_code = UVOPOM | q = 0 | S = 0 | Stoichiometry = C15H12Cl2N4SZn | MND = 4
Zn       -7.57818662836182    2.22882382861154  -12.19990125435432
Cl       -9.51762909758564    1.36645679555418  -11.47681513830740
S        -6.26914551381718    1.42386122963137   -8.64778632071595
Cl       -7.11681888143382    2.78559695986830  -14.25250063109123
C        -7.77102326340875    2.42151330943852   -8.97424500367424
H        -8.44809071775511    1.82702223849589   -9.60310199846330
H        -8.20391942949973    2.58332098452394   -7.98774678868458
N        -5.25831219111143   -0.62038513311726   -9.99667198312871
H        -4.93171192823050   -1.02037034942400   -9.13234147749764
C        -7.44558584994884    3.69615323039607   -9.63756483745011
N        -6.26819048318643    0.81869713887579  -11.35373743908705
C        -6.95273026737575    5.14926559919722  -11.15534722670101
N        -7.30901232179601    4.87717839298216   -8.98575004967588
H        -7.43384699950794    5.02768713812699   -7.99770668044297
N        -7.23360395095951    3.82356009157171  -10.92512193621780
C        -5.74654178479269   -0.20908094676547  -12.11495829973883
C        -7.00121598886684    5.83540043933171   -9.92397058733482
C        -5.96758808229020    0.53150468204494  -10.10972919637235
C        -5.77880185833433   -0.42077851506633  -13.48755723462513
H        -6.26378149097022    0.28073501683974  -14.14655745382132
C        -6.65968860891577    5.82171680857520  -12.33633892707779
H        -6.62401420407301    5.29124623322203  -13.27416522300878
C        -4.47012143829029   -2.26256052564511  -11.74989219103429
H        -3.97666531053179   -2.95903764962888  -11.09066649496467
C        -5.09613063924462   -1.12648292749843  -11.26496076366869
C        -4.51266351696765   -2.45878792901107  -13.11635878897152
H        -4.04024762828844   -3.33265650531818  -13.53833703781698
C        -6.42784902141364    7.17771764998403  -12.24254513956764
H        -6.20084285810849    7.73801419850474  -13.13634598886052
C        -5.15322881230857   -1.55422294095994  -13.96519643186009
H        -5.15732649493835   -1.74812189472315  -15.02658533667784
C        -6.76660677117405    7.19882890296016   -9.83870722066275
H        -6.80742110789783    7.72140493100319   -8.89558693005144
C        -6.48066824671040    7.85349558924977  -11.02002386472001
H        -6.29348861216088    8.91638392746114  -11.00027812330083

