133
CSD_code = UVOSUU | q = 0 | S = 0 | Stoichiometry = C54H72Cl2N4Pd | MND = 4
Pd        9.50631569842377    9.81836138002855   17.11289483674187
Cl        9.71710195904212    9.67176599199178   14.85240849093137
Cl        9.32058544726205    9.95283166621958   19.37251724397441
N        10.96312704321997   12.40199015350211   17.57748314551641
N         8.96225128151721   12.84648547397477   16.95582771538911
N        10.14822889468274    6.91816238033448   16.66014753751579
N         8.11898524279218    7.08118583124933   17.33355371216600
C        12.21177416820615   11.76585428011519   17.83420866668616
C        12.69372571695159   11.71960328962875   19.14586165235011
C        13.96393591440801   11.19222438112383   19.35123648043669
H        14.36858158602225   11.15446049419379   20.35115875039847
C        14.72318258850887   10.73312927424915   18.29341010099689
H        15.70851071554116   10.32849402814440   18.47465594620475
C        14.24168079563655   10.81826824846324   17.00078635273514
H        14.86150884110929   10.48868489597723   16.18392793169276
C        12.98746017649452   11.35195518636417   16.74058392471894
C        11.92296002166651   12.28972449146476   20.31466612056165
H        10.92218223653470   12.57814217981477   19.98205886856933
C        11.73878822967106   11.27037987744658   21.43869332993961
H        11.13719384209621   10.44060929798421   21.07996182360206
H        11.21377007943168   11.73728909932576   22.26915362783585
H        12.69152148821570   10.89493203868189   21.80241125164733
C        12.64246083246819   13.53717443644626   20.83984707098351
H        12.80780855489568   14.26346339667644   20.04612559506986
H        13.60981103716892   13.27204534527818   21.25997302969057
H        12.04812589249459   14.00938038404754   21.61884595473973
C        12.53044707941530   11.61783230449492   15.32352077322969
H        11.44645720034316   11.48235050273512   15.26703055889028
C        13.14119117509840   10.67281303228507   14.29343296752965
H        13.00978416295689    9.64187572553301   14.60698559026695
H        14.19970952852664   10.87345467904868   14.14010992946350
H        12.62986444364078   10.80486624437892   13.34290723334624
C        12.86625194586681   13.06870757903209   14.95486346998543
H        12.37081844289572   13.77761831759250   15.61507978267571
H        12.54714523107562   13.27224154037942   13.93506609145477
H        13.94066067681826   13.23345799282401   15.02069958035480
C         7.63913007872741   12.82051864911229   16.42934709510866
C         6.56084994271991   12.68803947548507   17.30659766509712
C         5.27820256536644   12.79635533808444   16.78423114562200
H         4.42672508615578   12.70159382749684   17.44042772244524
C         5.07970481799011   13.03756474560792   15.43858309064672
H         4.07581057600727   13.13029323246545   15.05002080425352
C         6.16076289079899   13.16904951234562   14.58822804201587
H         5.99016379446855   13.36831488554457   13.54180330890402
C         7.46102059201753   13.06822066722830   15.06446936304659
C         6.76247677523747   12.45074436713582   18.78315047427123
H         7.83231788681022   12.38540786521161   19.00136530979938
C         6.14429658481913   11.11325239413262   19.18743888726889
H         6.60623357547843   10.31084202598486   18.61333896214524
H         5.07183330308773   11.09712154465948   19.01153754759957
H         6.33170556146813   10.92032930321371   20.24036474089142
C         6.18149351231001   13.60500156715018   19.60204297492549
H         6.62602336201527   14.55198330293718   19.30075447519252
H         6.38736381611362   13.44806835500777   20.65812731505819
H         5.10472037625583   13.67472395997290   19.46925968323430
C         8.63087987649346   13.28989162918147   14.13464794813476
H         9.56105502919065   13.06569586698238   14.66399942417149
C         8.57627360335485   12.36418314615582   12.91983176462261
H         8.64532529798521   11.32912015849086   13.24438992790957
H         9.42084403363094   12.57054537308099   12.26600184559020
H         7.66134291627051   12.50195061049969   12.35007984506344
C         8.67033028802822   14.75915963820468   13.70218520294322
H         8.72582214176409   15.41728323058629   14.56752500773731
H         7.77940450531560   15.01650143892973   13.13435066639984
H         9.54147819829787   14.94096134422867   13.07679523179269
C         9.82425391321073   11.82394734616303   17.13898777112795
C         9.55256249931699   14.04307425088993   17.28097802701574
H         9.02344135861305   14.97060264862580   17.20786552510733
C        10.81219212073905   13.76261475293823   17.67265411040770
H        11.60446982144212   14.40073282278774   18.00532805739795
C        11.53101242266358    7.16594933680944   16.42126436725746
C        12.04353768385211    7.02852740635347   15.12802515611231
C        13.41213708062180    7.19870242436961   14.95120778800475
H        13.83768216976651    7.09227825792166   13.96542462272599
C        14.23731343799138    7.48783181779056   16.01880003010640
H        15.29803511627146    7.61732684758784   15.85967351118498
C        13.71730525919356    7.58128108251989   17.29592389742464
H        14.38220065189660    7.77061751192839   18.12152850049586
C        12.36044822146538    7.40793362607900   17.52840791632189
C        11.18492041508465    6.63058732683442   13.94951071112388
H        10.13223615221685    6.66940015518071   14.24233936972713
C        11.35314901133546    7.57869819092405   12.76204563371894
H        11.05913935068767    8.58205236525630   13.05497983996503
H        10.70975181693778    7.25583927399270   11.94645850724009
H        12.37838433874262    7.59532609605646   12.40225513182109
C        11.53000705157901    5.19665669403524   13.53094101679530
H        11.44281867540536    4.50448734689948   14.36641586432159
H        12.55052512914125    5.14496407493221   13.15855865774701
H        10.85908181052567    4.86739507032971   12.74063648213329
C        11.81105313860315    7.33672007146554   18.93801608035131
H        10.83975352373736    7.84385453013211   18.96789079894726
C        12.69215024704682    8.01678850049639   19.98085517193188
H        12.92974785008716    9.02944365882719   19.67216185465383
H        13.61387449400588    7.46235164211537   20.14778483456440
H        12.15264939973452    8.06485961115067   20.92392506449953
C        11.62448597711671    5.86503372218515   19.33214939269636
H        10.93400387009818    5.34611017309255   18.67145698319025
H        11.23664096695500    5.80268681370565   20.34663508880707
H        12.58229337337458    5.34767847901515   19.29689103927666
C         6.88711419927107    7.50384613064959   17.91180825620604
C         6.68002460676612    7.29137440287286   19.27838429050020
C         5.43549452421966    7.61451476822710   19.80242790666754
H         5.24336138165364    7.45742398991576   20.85195040570062
C         4.43485885779335    8.12560243956891   18.99911146821037
H         3.47325868379324    8.36795821008900   19.42739967188619
C         4.65778576932058    8.32360310641614   17.65042817236269
H         3.87028155968541    8.72519747486516   17.03259700717706
C         5.88304373939271    8.00476435826116   17.08069456729604
C         7.74195968495487    6.68029722102347   20.16177984524777
H         8.68848458994424    6.65177764824900   19.61570317448053
C         7.97871499156466    7.50795438490227   21.42464993036256
H         8.26185533445651    8.52057407415725   21.14952612371632
H         8.78878818466628    7.06839076078008   22.00284844149810
H         7.09316680905180    7.54303379371100   22.05321110733778
C         7.34918121514044    5.24356672005041   20.52041421643247
H         7.21043132697319    4.64102753850039   19.62472150752157
H         6.42063619092777    5.23176533681759   21.08648733705938
H         8.12753476331442    4.78372980537535   21.12538006509850
C         6.14243771260183    8.24952528442677   15.61501123496235
H         7.05690734519568    7.72770865697013   15.31468201173967
C         6.37870126510162    9.74812432635145   15.42786928196039
H         7.19634717782483   10.07833919231687   16.09079484592996
H         5.48375707763453   10.31259470498657   15.67693074678412
H         6.66317579196255    9.96481017141133   14.40168397930724
C         5.00714135825078    7.75108232672912   14.72166085488484
H         4.78011479548507    6.70801108749244   14.93408829453244
H         5.30156081469584    7.83563277339329   13.67826195428715
H         4.10377100844242    8.33818908124397   14.86415349287239
C         9.23473242306972    7.80667146357435   17.10761003609920
C         9.60449320620374    5.66017560001830   16.59006123885153
H        10.16740501852779    4.81371279777967   16.25538969236347
C         8.32777540812547    5.76190575639941   17.01423542880574
H         7.55344567529931    5.02902780691047   17.10897599746263

