95
CSD_code = UVOSAA | q = 0 | S = 0 | Stoichiometry = C34H57N2PPd | MND = 4
Pd        0.98857651368928   10.56733208527828    3.17289718761527
P         2.17899911888793    9.10847835534368    1.89209536170581
N         0.22443769540919   12.44294820140601    5.38642471903524
N        -1.35817756200908   12.23217680206179    3.91937915013218
C        -0.12221360944458   11.82078279243394    4.25006258988551
C        -0.76196722911239   13.45775257034540    5.77845783935129
H        -0.40013443570299   14.45012147556482    5.47345515488830
H        -0.92969462173159   13.47658498070141    6.85105187069953
C        -1.97771837338151   13.03052057257047    4.97818286334934
H        -2.65545464710172   12.39206997968715    5.56405479139169
H        -2.55156936505184   13.86452026221542    4.58250299423730
C         1.37978378481531   12.31199147764375    6.20581184651389
C         1.20100406929405   11.89300312329424    7.53408573616208
C         2.27865806777533   11.95028396229883    8.40770860439008
H         2.15087118319234   11.64231391412670    9.43383966381995
C         3.51185066428056   12.39844561442744    7.98442589915276
H         4.33549390871702   12.46351216226521    8.68015356668748
C         3.69769789131389   12.73263421584580    6.65774073470080
H         4.67758609874232   13.04294120251862    6.33518193053203
C         2.65468150700575   12.67885497993185    5.74102939562439
C        -0.10439075391732   11.32561934131610    8.05466741750754
H        -0.82439650096536   11.26639480495488    7.23307037726692
C         0.10106000514274    9.89811076853930    8.57366859560786
H         0.56931373616934    9.27927617784941    7.81351444969253
H        -0.85965820458504    9.45889752011424    8.83609920448837
H         0.73309134232653    9.88775307025581    9.45761970789185
C        -0.68971403977857   12.18781850097302    9.17900220110395
H        -0.78383254963294   13.23252805183001    8.88710632435000
H        -0.05108698815288   12.14906185658561   10.05796045281064
H        -1.67465320946810   11.81909232091094    9.45889836326627
C         2.90910559101875   12.99136780671691    4.28254447360601
H         2.32862698889603   12.26058683992759    3.67504166450863
C         2.44241948800615   14.41176787867130    3.94955428148659
H         1.36889945842678   14.51394514136012    4.08034642161302
H         2.67640074840903   14.65112378202692    2.91489163390586
H         2.94104790564218   15.13575148600106    4.59406043146029
C         4.37536377083573   12.82375983659183    3.87882962175226
H         4.45712581908272   12.86943380136482    2.79477989999029
H         4.75226534294888   11.85721146271779    4.20562296208270
H         5.00371494207053   13.61272208226650    4.28974603858158
C        -2.13949700851663   11.86717826797566    2.78990403274605
C        -2.51989853601370   12.85804960756253    1.86921862766500
C        -3.33864004858996   12.50154236361516    0.80726283654720
H        -3.64020487534815   13.25148209125146    0.09254172202712
C        -3.77297575559549   11.20151316309928    0.64242330472799
H        -4.40544981112242   10.94288502068112   -0.19425687793378
C        -3.39763611224630   10.23801226258170    1.55405221859464
H        -3.74847803453816    9.22533441077970    1.42587913463968
C        -2.58853185681921   10.55014662364534    2.64049439393724
C        -2.08411745005015   14.30426764761794    1.98177721482252
H        -1.33239858512260   14.38989722017601    2.77185002658518
C        -3.28211650921883   15.19745894349289    2.32629217203643
H        -3.80713065503067   14.84686275448772    3.21338887649736
H        -3.99437784001051   15.20472548059264    1.50465428578692
H        -2.95150781912008   16.21951446992846    2.50085416974966
C        -1.43804526256100   14.80620573478832    0.68668734308169
H        -0.65244987822799   14.12924259638853    0.36545976184800
H        -1.00285653210443   15.79027882718977    0.85046686672057
H        -2.16832474062634   14.88921502523421   -0.11383037057876
C        -2.25168883259081    9.45550518289824    3.62538513636141
H        -1.59597838062864    9.85195060764713    4.40868616319137
C        -3.51878754037081    8.91331751019391    4.29141758685216
H        -4.07130108400658    9.71575731074680    4.77758569303535
H        -3.25436576091245    8.17208889563830    5.04243082132532
H        -4.17535803666182    8.44271603477273    3.56357301928828
C        -1.47723777534439    8.34717469494967    2.90899276233249
H        -0.56488195044697    8.78972170898632    2.48184435615828
H        -2.06647917674597    7.89996855856022    2.11127158629620
H        -1.20147913440998    7.56757831530695    3.61611412974849
C         2.35293964462239    7.33167129835296    2.35677313537712
H         2.94487740416017    6.81229168023996    1.60323147488254
H         1.36632694703489    6.87514009773143    2.41394639807928
H         2.83676786697518    7.23199984367220    3.32389612030220
C         1.56695931490264    8.80714847926135    0.17975814686965
H         2.27531670035021    8.19110194384853   -0.37343749167560
H         1.40863514959933    9.74200453974902   -0.34783338182290
H         0.61107211887215    8.28805863817479    0.24146644561558
C         3.95129414308414    9.49798543099303    1.59498101320669
H         4.38657579168516    8.79123891304241    0.88850983022038
H         4.48556101172564    9.43855139102206    2.54197290642302
H         4.05176360759503   10.50950088454818    1.21086102133769
C         1.22570003746845    9.26552392645515    4.89133036763773
H         0.57911761988412    9.55759827717062    5.73236704687420
H         0.93239102721641    8.23509919802174    4.63420276831384
C         2.66611286602266    9.22264577200079    5.41086592682505
H         2.77884339030629    8.46267403528803    6.19603599725756
H         2.96639040794764   10.17668553365436    5.84080026705403
H         3.37664091653586    8.97711910697476    4.61809223677249
C         0.74912922418800   11.93386613474937    1.47844554621898
H        -0.00154536320664   11.47861014797854    0.80562536596364
H         0.29695296633446   12.86129877719385    1.85759891776366
C         1.94443633496981   12.38045516398031    0.62958158237395
H         1.62995087691317   13.10523021436717   -0.13416756599606
H         2.41811802406550   11.55339668319556    0.10087612148579
H         2.70485340173949   12.86912129675184    1.23893238573273

