84
CSD_code = UVOSEE | q = 0 | S = 0 | Stoichiometry = C31H47Cl2N2PPd | MND = 4
Pd        6.50981318109334    2.59171935566812    9.39860544371254
Cl        6.31812834328985    0.42314207626523   10.27213599554375
Cl        8.68184247971220    4.31937487539897    8.52521443798859
P         7.13873595241492    1.45865613022545    7.50528742952214
N         4.58223371489707    3.10085396926271   11.58208527641689
N         6.30959698886488    4.33311223781999   11.91816864824190
C         5.78972488015719    3.41918224639924   11.07325865656243
C         4.34818011250486    3.80625193801880   12.73461347711562
H         3.43879020882722    3.70797840346189   13.29008109295285
C         5.43464612651934    4.58083006230419   12.94779271912188
H         5.66520023577494    5.26209399809467   13.73980625776223
C         3.71868609501369    2.10173007564727   11.05192798741031
C         3.49629955039473    0.93491114804281   11.79275589731997
C         2.67300597314339   -0.03803119310387   11.24348639800845
H         2.49287092222868   -0.94986341565435   11.79025083605016
C         2.09532502632411    0.13316355015840   10.00154043850875
H         1.47087176095343   -0.64356511344683    9.58495345236016
C         2.30844435543916    1.29965512152571    9.29519865610986
H         1.83385317022484    1.43068573798176    8.33489035963147
C         3.11892126041839    2.30698629851221    9.80476386830385
C         4.10567468550618    0.70457825749627   13.15659554648316
H         4.83244180740806    1.49395457897520   13.36867338877396
C         3.01365056652999    0.75248265267915   14.23023557783152
H         3.45514764285315    0.63257619404264   15.21718936328458
H         2.29332628144196   -0.04738244615219   14.07653639649325
H         2.47602557225673    1.69892434843890   14.20563697759748
C         4.85981147803981   -0.62488537380663   13.21487179340455
H         5.41064775774421   -0.69554713269751   14.15056519502028
H         5.56070062615659   -0.68013082726362   12.38576914094184
H         4.18045450733757   -1.47070559802516   13.15470924496494
C         3.24165528820990    3.61366744788713    9.04821442785533
H         4.00469416461035    4.24746922683298    9.51831531611688
C         1.90620252358175    4.36176515661156    9.10204926341597
H         1.98901582403099    5.31333192053708    8.58128938554701
H         1.61729662458818    4.55632743377488   10.13323594364271
H         1.11808080212657    3.77823349821893    8.63227926809611
C         3.68100373127263    3.37400447866161    7.60203149192077
H         3.87632613022295    4.32427894374594    7.10873674048534
H         2.91812135545880    2.84495948684434    7.03623740602679
H         4.60220507635967    2.77703307440371    7.60651514937011
C         7.59428995213158    4.93236848164196   11.79946505412954
C         7.69091538365747    6.30930735588505   11.56358153102155
C         8.95670215069308    6.86752671385992   11.45583122903625
H         9.05870285712098    7.92564856461499   11.27317455200528
C        10.09037528342124    6.08662780203603   11.56898710101763
H        11.06629664950463    6.53717731717891   11.46718121266384
C         9.97591852610981    4.73395266818333   11.81347955519645
H        10.86816059568076    4.13501840508520   11.90584388868569
C         8.73071323373541    4.12965714489086   11.94042774249678
C         6.47162777116612    7.19773588351170   11.44087602781975
H         5.57423773034182    6.57305375587095   11.37426818142410
C         6.34927265140153    8.08861293405652   12.68142258641467
H         5.45153476093460    8.69964038019769   12.61738192737021
H         7.21050994714078    8.74764084803036   12.76023534544319
H         6.29687258520357    7.49384969017570   13.59062479877522
C         6.52136332443113    8.06953224458513   10.18300611542961
H         5.56956732010399    8.58020273507943   10.05130214383055
H         6.71365600574348    7.46661327576791    9.29881981159893
H         7.30119491122853    8.82245308985573   10.25630886636423
C         8.65457547772413    2.65343389374401   12.25522082230188
H         7.60819750369744    2.33483266264311   12.32996341345376
C         9.32619235895695    2.35921452376426   13.59889019737693
H         9.20303363831147    1.30771319672895   13.84725299910951
H         8.87767902939372    2.95634455379018   14.39134694637723
H        10.38994229601609    2.58101945261345   13.56373093275698
C         9.28919769168399    1.83827206912818   11.12631213008233
H         9.19687160446606    0.77653925908190   11.34492711043554
H        10.34034814574348    2.08582744122962   10.99647194780070
H         8.75467829349546    2.04601650416505   10.18751077064713
C         7.45201563460188    2.28876197190873    5.89320478239453
H         6.54378327997653    2.77829975481929    5.54391334607738
H         7.76846250735662    1.55230215227954    5.15571170222569
H         8.23262007988832    3.03731534840744    6.01300566345768
C         8.70022249538527    0.52645729029889    7.70758719421759
H         8.60420525812346   -0.12429605206862    8.57621997933997
H         9.51983775736984    1.22711293378872    7.86994363682743
H         8.89795210987574   -0.07023029925638    6.81681415745073
C         5.99740939426114    0.12802560158438    6.96934560582200
H         5.80163136351350   -0.52353530216259    7.81920025538159
H         6.44874022264768   -0.44361508879258    6.15837250033834
H         5.05418212420069    0.55741574538426    6.63256655894045
C         6.90630596208826    4.40214976173475    8.60537536663156
H         6.56748028921201    4.56828518609804    7.57840947321308
H         6.67927105833317    5.29361532476117    9.19288049074552

