21
CSD_code = UVOXUZ | q = 0 | S = 0 | Stoichiometry = C8H10ClNPd | MND = 5
Pd       10.10851594109189   -7.68637658186636    5.57164515923730
Cl       11.23618506463699   -9.62064510086806    5.20997512004479
N         9.70688848606607   -7.75383140237983    3.55297105560194
C        10.61286602098081   -7.24759239653490    2.71640726741186
H        11.27382255514705   -6.48451079884644    3.12303346031812
C        10.72400374649472   -7.66365704932558    1.40106944895005
H        11.47761681869869   -7.23440550433318    0.76008783720158
C         9.86272500693711   -8.64448739405776    0.93418519194345
H         9.92847614310616   -8.99691358885906   -0.08389921931267
C         8.92160204695033   -9.16989584219587    1.80635551473776
H         8.23796047039347   -9.94050069772985    1.48772406638419
C         8.88034286377770   -8.70025325821013    3.10741288690128
H         8.16778735826433   -9.09648936290085    3.82808440839228
C         9.38644796571954   -5.78753945616630    6.22875036847366
H        10.27387443394573   -5.17099204317716    6.06771597156061
H         8.45092015924002   -5.32707366651324    5.93182514393222
C         9.38445354576970   -6.71749422643435    7.27736777294482
H         8.44009851027026   -7.06283052360546    7.69871786914906
C        10.58576018267607   -7.40265976421940    7.57907133148089
H        10.55861697854123   -8.19163376725644    8.32661716837260
H        11.53523570130089   -6.85751757452396    7.52538217627584

