99
CSD_code = UVUCIY | q = 0 | S = 0 | Stoichiometry = C55H37ClN5Rh | MND = 6
C        18.50190328278206   13.74692571653350    6.41523344153180
C        19.79435343760924   13.81437757214584    5.79370069174886
H        20.72229339028397   13.94139229774861    6.31610059912358
C        19.59687331413108   13.68927822129165    4.46107636797355
H        20.33060925168401   13.69474268569676    3.67869427814524
C        18.18103544817474   13.56557998850546    4.25899819069710
C        17.58114801143729   13.42827037444024    3.00640548182260
C        16.20329091498732   13.44374288891131    2.79299922847597
C        15.58271862078415   13.31267440008198    1.50501392303307
H        16.10532806399013   13.13409301019990    0.58584145353005
C        14.24946896855957   13.43669518719392    1.69702733782473
H        13.46651014366887   13.37876876049204    0.96632147116833
C        14.04563672253595   13.62277632757330    3.10595856573180
C        12.79066362936279   13.74117529048010    3.70180295057490
C        12.58041465148100   13.74135957376568    5.07980343102628
C        11.28778256139460   13.80660689905144    5.70124673615573
H        10.35959011886035   13.93105010130944    5.17867419713504
C        11.48546823828591   13.68313988557957    7.03396523311913
H        10.75171195312750   13.68776596327848    7.81633919021667
C        12.90156489662480   13.56252911801024    7.23619625540122
C        13.50163246554768   13.42785944217947    8.48896610728024
C        14.87947283616239   13.44526782301421    8.70230952807296
C        15.50020308132266   13.31534586394963    9.99033239108745
H        14.97771140788615   13.13699110107034   10.90962106819026
C        16.83335795534529   13.44005035227480    9.79813247655356
H        17.61645420307930   13.38278456133942   10.52873974281093
C        17.03693931678105   13.62590961874203    8.38913462066147
C        18.29169129292264   13.74623647704197    7.79322934126556
C        18.46789681730646   13.26196683688492    1.83551856619056
C        19.28452053039643   12.13963230559845    1.73616789386622
H        19.25282168705651   11.39556781635001    2.51822246134127
C        20.11250442009301   11.97231574603900    0.64144716681729
H        20.73731578535451   11.09404632226601    0.57038909797927
C        20.14124344532141   12.92619208828467   -0.36250289172951
H        20.78914311303337   12.79524555761254   -1.21664684569455
C        19.33582939957937   14.04861037279305   -0.26792046260600
H        19.35678021845376   14.79670417898100   -1.04730504937895
C        18.50184883014178   14.21545741644462    0.82289746918717
H        17.87633427619192   15.09405891835563    0.89852372156267
C        11.61205209418327   13.81541296093035    2.81294756448468
C        10.65562455141063   12.80488643390849    2.81462411263559
H        10.78847126439273   11.95440005885932    3.46694723272903
C         9.55792797531077   12.87993354856576    1.97670941293441
H         8.82385495812641   12.08745339612220    1.98186951291512
C         9.39922101367917   13.96563348181686    1.13147048427898
H         8.54026159955229   14.02414711927617    0.47935306761565
C        10.34753641989025   14.97476551331715    1.12299139836642
H        10.22861751943981   15.82332523206222    0.46469770178631
C        11.44944915046097   14.89912885115922    1.95535877320000
H        12.18998719026415   15.68666003543194    1.95190870080013
C        12.61511643036218   13.26111395909128    9.65998591232549
C        11.80081239863019   12.13713535039295    9.76003600532771
H        11.83432968807415   11.39259800171406    8.97849870699489
C        10.97303131817868   11.96880773173068   10.85472918830684
H        10.35015961147477   11.08920029892950   10.92635503146967
C        10.94220644669273   12.92331125603124   11.85802256719294
H        10.29445849707080   12.79159968355858   12.71216651952501
C        11.74525565885042   14.04734654052174   11.76274128307770
H        11.72247203429376   14.79600903261500   12.54154826134850
C        12.57903903576220   14.21524687738367   10.67189358241974
H        13.20265305346032   15.09517130180110   10.59581290309031
C        19.47029049262995   13.82185838479434    8.68200521487391
C        20.42766907964457   12.81224300707732    8.68037631413042
H        20.29566897528490   11.96164969186804    8.02802343776675
C        21.52521450951996   12.88833076291880    9.51839155174375
H        22.26001666249956   12.09653116499747    9.51335694434838
C        21.68286465994577   13.97423849747283   10.36355817279733
H        22.54170950806968   14.03356532939050   11.01575576554492
C        20.73369967824130   14.98256897434936   10.37181229238572
H        20.85183754876161   15.83131822591896   11.02999490585646
C        19.63186043447463   14.90582512621327    9.53944484769135
H        18.89058794085139   15.69265733391874    9.54277420777327
C        14.87506003748681   16.40890823432429    6.67501553137171
H        14.34122504802695   15.83853837426515    7.42261703523992
C        14.84514547997963   17.78735592117449    6.70921365687211
H        14.27487044916620   18.28790243772114    7.47605160520183
C        15.52783425137348   18.52319287356966    5.73933447797308
C        16.21685083125143   17.78780461951253    4.77357654838935
H        16.78350295609632   18.28896941745298    4.00445821301451
C        16.19754599507979   16.40936298981432    4.81459589877732
H        16.73640925611436   15.83939304803221    4.07028637772833
C        15.52174876386069   19.98870638757450    5.73518513010833
C        15.58111916908720   20.70100669462345    6.93199371390775
H        15.65515139115740   20.16766734962406    7.86824269538712
C        15.58091367157093   22.08298846301131    6.92549920472628
H        15.63607826702922   22.62361132147652    7.85863550888784
C        15.51083499806791   22.77417769536909    5.72711172941844
H        15.50665048681224   23.85364844398557    5.72398536161477
C        15.44603857218580   22.07553688881851    4.53276020776537
H        15.38649844171439   22.61028616649155    3.59651968790486
C        15.45662431863899   20.69358326377696    4.53428036509688
H        15.38667701889582   20.15427016182201    3.60114302815075
Rh       15.54136962269800   13.63880635558071    5.74752960640708
Cl       15.54220871381447   11.38473511411872    5.74896557916330
N        17.54167799508665   13.63849833158339    5.45762381919163
N        15.24564871997401   13.61809945070937    3.74526711603265
N        13.54085414293326   13.63540752936480    6.03749399431592
N        15.83688713042000   13.61985465280093    7.74986244896419
N        15.53855017025192   15.71552758774155    5.74623445276191

