61
CSD_code = UVUKED | q = 0 | S = 0 | Stoichiometry = C28H22CdN8S2 | MND = 6
Cd       11.20918454766871    8.61515790676174    5.60733479025616
S        15.46058825487011    7.74615932776584    3.78571477211750
C         8.54470170600259    6.57577255148591    6.45810173728855
C         9.82676916164773    5.93954747364945    6.22774735998952
C        11.95094880692753    5.54964690271725    6.09152771084160
N        11.01129099709818    6.49314753768993    6.43890774663529
C        11.98638077487769    3.24887781688800    5.26420374396298
H        11.47410877343867    2.35667574003249    4.93792900850194
N         9.95163370282076    4.65788523227425    5.77762814531652
H         9.19688066082749    4.03896145484776    5.53413560228284
N         9.54002100475909    8.29241165865690    7.88230828448607
H        10.25626966984592    7.62893653261196    8.14992456933011
H         9.30111391272306    8.95855764418216    8.60542939011447
C         6.06434713378489    7.82025039210880    6.78817265589758
H         5.11217353044066    8.31376288621080    6.90435776275778
C         6.16961976081565    6.68774158483356    5.99424184919753
H         5.30196894724479    6.29820156340246    5.48622940558129
C         7.39489877212814    6.07932715827680    5.83412354852835
H         7.46983233779087    5.22337148418680    5.17975925654451
C         8.43236253849590    7.72702285998410    7.26508392369092
N        12.88583919283899    8.45695465080081    4.46826858710375
C        13.98204244531535    8.14335965964898    4.17506300452786
C        13.34122899790576    5.60421587616912    6.11990835032730
H        13.85382415377416    6.50187040925771    6.42710793757360
C        11.29073290127500    4.37631009420280    5.67044557163145
C        13.36481676468840    3.32622527630427    5.28723821921549
H        13.94636327434017    2.47423143491913    4.96970924234983
C        14.02776988090865    4.48227070092641    5.70656561766588
H        15.10658071972426    4.49900240303689    5.69455772486782
C         7.18124798831165    8.32418867736378    7.41909131991464
H         7.09983255984219    9.21055162696170    8.03366368210200
S         6.96103946794072    9.48718212454629    3.77455452393997
C        13.87115945310458   10.66122764010999    6.45475533133574
C        12.58772201391284   11.29492379649191    6.22506394121617
C        10.46270806368106   11.68055932636978    6.08895166754500
N        11.40430332958146   10.73848570424293    6.43485620390203
C        10.42261967208759   13.98249177772860    5.26494055183800
H        10.93308819348571   14.87636075326073    4.94031353895646
N        12.46024227675804   12.57699164115525    5.77672061242911
H        13.21373982757760   13.19817163999230    5.53499675126961
N        12.87923866878761    8.93975123606561    7.87546036208113
H        12.16234097003336    9.60150901538122    8.14562459047782
H        13.11952663727641    8.27200333715524    8.59664714837496
C        16.35425492615620    9.42179586284220    6.78316938713893
H        17.30754659209426    8.93034175564154    6.89881351974143
C        16.24669399921430   10.55580897112140    5.99168448715109
H        17.11364704970092   10.94843099835853    5.48481985278747
C        15.02006404289141   11.16166455492334    5.83228499431643
H        14.94333053063921   12.01854327535992    5.17930320824421
C        13.98589606030262    9.50862770536996    7.25945913988846
N         9.53066781572407    8.76881984184594    4.46964548037550
C         8.43665182312437    9.08656067621374    4.17177908835257
C         9.07251124276506   11.62296545492895    6.11695931486423
H         8.56175421843069   10.72373413714621    6.42260232488730
C        11.12056290870655   12.85591199399831    5.66965460870062
C         9.04433208637995   13.90207152180022    5.28729730867008
H         8.46104121051572   14.75324040497879    4.97076391339824
C         8.38371173689091   12.74394677962314    5.70474468992561
H         7.30495122600163   12.72472913010761    5.69198007323552
C        15.23828794181794    8.91397736325207    7.41260753486875
H        15.32159214133537    8.02647506189812    8.02526532945188

