51
CSD_code = UVULUT | q = 0 | S = 0 | Stoichiometry = C14H26B2Br2N6Zn | MND = 4
Zn        0.00000006702888    7.26537138877398    6.59132334850106
Br       -0.00000001611826    5.18733025215370    5.48938774479888
Br        0.00000003282329    8.16038526163257    8.73516840075528
N         1.11859472990144   10.20183719372355    4.59630148767680
N        -0.00000000916748   12.23583518946509    4.23469076551145
N         1.11891620048538    7.86326043543526    3.58556355247353
N        -0.00000000921761    6.55367207519170    1.98229190945886
B         0.88538946736019    8.69624028870020    4.87126378646055
H         1.75707706175261    8.35776040187622    5.66773303706042
C        -0.00000000183666   10.89919748743866    4.45840263132864
C         2.41484784429661   10.82578494745254    4.50688536734152
H         2.80524948698136   10.73813674192306    3.48217483791157
H         3.09356874492305   10.28582446519980    5.17222595381966
C         2.32913786021962   12.29491438476887    4.90080021695495
H         2.05918430223486   12.37177630812046    5.95532644616063
H         3.28564434319960   12.79225663484306    4.74442404748525
C         1.24529860472172   12.94796382245002    4.05373442665099
H         1.09348329301168   13.98724496181574    4.35936782791884
H         1.54046779575465   12.94578955837638    2.99412340256238
C        -0.00000000124369    7.39372235900760    3.04702848587483
C         2.41695357662610    7.37010698713759    3.18835975612556
H         2.72428623622059    6.55987646651502    3.86483844047915
H         3.13773628978326    8.18506322609772    3.29595151380944
C         2.38640708954429    6.85561997497169    1.75629706083489
H         2.22705437052295    7.68843721952976    1.06795642111073
H         3.32826015779193    6.36845430846709    1.50699253832876
C         1.23105093122163    5.87350062009722    1.63452847842310
H         1.13454395262081    5.51194440237056    0.60674904405789
H         1.39044345150634    5.01089959521717    2.29540591069651
N        -1.11859471783183   10.20183719061375    4.59630148285992
N        -1.11891619300972    7.86326044158489    3.58556354249736
B        -0.88538929927525    8.69624031497590    4.87126371292656
H        -1.75707703811603    8.35776049980049    5.66773278114860
C        -2.41484784979998   10.82578493869622    4.50688537933940
H        -2.80524949350618   10.73813677282633    3.48217484339124
H        -3.09356877791986   10.28582445910398    5.17222594594707
C        -2.32913788271500   12.29491438489118    4.90080020882879
H        -2.05918431389721   12.37177630611559    5.95532643172064
H        -3.28564435889443   12.79225665418825    4.74442404683106
C        -1.24529861875365   12.94796383073823    4.05373443356717
H        -1.09348329255767   13.98724497449660    4.35936781893520
H        -1.54046780507949   12.94578956015058    2.99412340946137
C        -2.41695358368908    7.37010699298667    3.18835975304676
H        -2.72428626712028    6.55987646689194    3.86483842386283
H        -3.13773630844213    8.18506322653981    3.29595150192824
C        -2.38640711857338    6.85561995667147    1.75629706124734
H        -2.22705438665256    7.68843719445965    1.06795642134446
H        -3.32826017760943    6.36845428076800    1.50699251796033
C        -1.23105094822020    5.87350061572526    1.63452848102689
H        -1.13454395787957    5.51194439031126    0.60674904962555
H        -1.39044346340621    5.01089958871149    2.29540591193105

