57
CSD_code = UVULON | q = 0 | S = 0 | Stoichiometry = C16H32B2N6Zn | MND = 4
Zn        3.19378830501843    7.89796987925149    1.90368496930090
N         5.86430904019222    4.38087921147902    2.34607454920032
N         4.75632508562377    4.47940322684747    4.28700645325204
N         6.87284164885412    3.45270316826260    4.25822889478007
N         3.67166584912459    4.18908623115269    1.09705765539273
N         2.56528165150009    4.27111772955041    3.03911758808745
N         1.63558981570976    3.02489732472234    1.27452761921891
C         5.83306425365932    4.08259059872285    3.63264923130719
C         6.98080967996198    4.03617618086668    1.50840371281883
H         7.08565874114369    4.82147857696436    0.75477026656385
H         6.78083728395890    3.09188846893493    0.97802426111102
C         8.25894227749997    3.89744460042887    2.32918866272366
H         9.07759487235063    3.52253726983170    1.71473193229228
H         8.53661227946997    4.87227763916577    2.73296596492022
C         7.97799118889036    2.94253237340768    3.48263268359941
H         7.75704338013209    1.93601204445039    3.09323307287019
H         8.85051641383963    2.86357070231576    4.13957806344603
C         6.74791338353193    3.05439697287764    5.63979380478787
H         7.75382862277781    2.96411339184418    6.06301276573734
H         6.25666067150797    2.07208489042442    5.72584516677679
C         5.94227518504657    4.10761367075585    6.39015254402394
H         6.47333151150253    5.05978919430853    6.34794187961446
H         5.81570360689313    3.81871530577278    7.43363195795251
C         4.59129984683363    4.25150560989522    5.69690429989725
H         3.99245104818045    3.34313492672123    5.86789070614694
H         4.03188754562608    5.09692419478509    6.10662324354896
C         2.61959987169646    3.81081350075850    1.80150534779306
C         3.83803319106877    3.81325453560171   -0.28041289483662
H         4.47550156277844    2.91814345396865   -0.35895234779231
H         4.35303523283484    4.63342694752268   -0.78752237128888
C         2.48804811812486    3.53615678060737   -0.93283950526422
H         2.61397798501501    3.15708875294590   -1.94710851348022
H         1.91125935054609    4.46145963416355   -0.96787870918054
C         1.75073658295007    2.51798905822812   -0.07216847125161
H         0.74260700982444    2.34267810929559   -0.46198407744793
H         2.28776086113671    1.55625782009705   -0.08333895517402
C         0.52970123751124    2.59371001243010    2.09599279522963
H         0.77409701377624    1.65581014413697    2.61944688516173
H        -0.32864216799233    2.39926282365198    1.44459064784222
C         0.19759724163222    3.68272747952156    3.10851453484706
H        -0.11171417920645    4.58469197150063    2.57810247646734
H        -0.61362701303365    3.36060435221105    3.76156987843533
C         1.45987604541354    3.98018563250210    3.91084370132667
H         1.31210464184011    4.84784668946848    4.55937903198804
H         1.69724591701208    3.11813103280526    4.55450291492168
C         1.52006497984908    7.25419037613807    0.88966059736114
H         0.61534766003895    7.78642599036979    1.17773699728594
H         1.34561936283378    6.19976889724609    1.07877586134030
H         1.62295556434618    7.37150666777294   -0.18753033848829
C         4.53483794778529    9.24435209222134    2.67264861191816
H         4.43331175290740   10.23857431745771    2.24108836724919
H         5.55631167873423    8.92043901116438    2.49760562990761
H         4.41998278035341    9.35129229698974    3.74804642246604
B         4.59515196142736    5.16999215027298    1.88592420934079
H         4.94557369534752    6.04631272821636    1.12614837265711
B         3.74654013396425    5.23964459208177    3.36708561566174
H         3.29768079065747    6.17961876491619    3.98399533563353

