53
CSD_code = UVUMUU | q = 0 | S = 0 | Stoichiometry = C18H22F6N4O2Zn | MND = 4
Zn        1.54349989194583    9.68378039405551    7.04076404971319
C        -1.67055112098466   10.79877887721494    8.12403083967136
F        -2.42711895359628    6.54532342295441    8.05153861355844
O         2.47417557084506   11.59107966053526    6.66109361940137
N        -0.78901331771937   11.63497003132526    7.70237760721099
C        -1.71198520759977    9.38716117455671    8.39268151001378
H        -2.59246844576972    9.08020368841360    8.94119982730158
C         2.52333123444518    8.16838991127519    9.49698615488055
H         3.32573761328867    7.67579065017654   10.05826052183969
H         1.79071333825776    7.42262672111457    9.19885842065058
H         2.03144679012273    8.89188518957142   10.14479247169956
C         1.24556769581948   13.59036819302997    7.01886467058511
F        -2.96865226888477   12.80096680151327    8.25107146700202
F        -3.33243008457123   11.30784434965034    9.74691226238132
C         2.15430394443425   14.32044402529544    6.24983500762837
H         2.91144622426076   13.78458694255941    5.69750136765316
F        -4.00882269179707   10.99492325125494    7.73260812840589
N         2.52078765218878    8.73033195166730    5.40519835425603
C         1.39090440056419   12.12505752139865    7.02397124280097
C        -1.28095611905854    6.99943156880366    8.58066254938807
F        -0.34518134071021    6.07062170731130    8.32242308418843
N         3.05222152644148    8.84847087082166    8.31305139972893
C         0.20126226190921   15.64871606232348    7.68609201121011
H        -0.56050185055199   16.16667975133418    8.24906378203196
O         0.20402945251278    8.33026248399304    7.33933087522219
C        -2.98350064656638   11.48057420109297    8.45594234317507
F        -1.45216792474239    6.98850742160770    9.91692601478626
C        -0.86425547254304    8.37956844486074    8.04501406220730
N         0.45621052573280   11.25131739251401    7.39060378622697
C         0.26864915837704   14.26837785506464    7.74476844779775
H        -0.43572380647624   13.71821291336632    8.34478266499123
C         3.82016858954382    8.40012831447052    5.99949678944763
H         4.41617933472738    9.31362506730533    6.02036526986476
H         4.34598543009580    7.65549796056654    5.38533384624271
C         1.09926162917419   16.36568846450399    6.91289596349099
H         1.03849009342046   17.44337488907033    6.87051049525940
C         1.83425569985212    7.51692373908138    4.96111391985221
H         0.88354079482585    7.78810931858292    4.50830786464086
H         1.61783869780679    6.87153074325184    5.80662175276516
H         2.43986357086195    6.97192766380350    4.22721795888159
C         3.67494481436352    7.86432779206398    7.42095645760851
H         3.03829764772970    6.97865574577695    7.40585028246145
H         4.66395992738601    7.57175727001786    7.80072078178629
C         2.07857528212734   15.69749147282795    6.19457287971349
H         2.78245010004021   16.25257573904598    5.59174400746347
C         2.72518166815136    9.60276576757440    4.24773692230224
H         3.37287245359461    9.12402473645414    3.50400460777516
H         3.17261411910036   10.53936210587997    4.57200909688968
H         1.76426762602545    9.82553395488076    3.78795986990498
C         4.03223012858878    9.84466285761161    8.74635175673884
H         4.88080834294815    9.36662504022211    9.25027459624486
H         3.55771334598867   10.54012686700329    9.43557307727809
H         4.38894267406962   10.41863105934954    7.89617464577778

