144
CSD_code = UVUWOY | q = 0 | S = 0 | Stoichiometry = C48H86BN6ScSi2 | MND = 5
Sc        2.10399151275050    3.08486535684401    4.12926363348613
B        -0.27414398740793    3.00578972797165    4.57119775640412
N        -1.34609022656702    3.87497906866931    4.09830044637003
N        -1.05098675501458    2.07079752554866    5.37783779319586
N         3.04111654803532    4.85156551022340    3.14209702803139
N         3.06940170652223    4.91456078529474    5.36258037232647
N         2.67995188791420    1.30935722408561    2.61083657757905
N         3.44249564792321    1.39613739760054    4.69627693077202
Si        5.81050228495370    6.88443017158840    3.77246464903746
Si        5.98447898113615   -0.34008094526735    3.07216714218206
C         3.92381528434181    6.94006423109264    4.16234764403197
H         3.77339368211528    7.45413835633412    5.10866598908889
H         3.40023902883571    7.52479814187733    3.40600994724820
C         6.18274983352504    7.50351198548337    2.00002344335393
H         7.23536928104064    7.75509903245498    1.90836182734472
H         5.61591674546090    8.39958682133071    1.76196375871865
H         5.95963023838377    6.76194559793508    1.24008782948437
C         6.49840209892581    5.11695384283535    4.00637441207313
H         7.16921361478119    4.83908225237523    3.19786110070018
H         5.68438255385256    4.39388678185305    4.02995239029408
H         7.05310284532994    5.01539183057096    4.93521463901057
C         6.69737332855527    8.11627292346592    4.93767679664415
H         7.76986504578056    8.08651453726355    4.77328057826794
H         6.52357268401490    7.90896691517041    5.98871405997350
H         6.36964728393366    9.13422933649215    4.74888577073180
C         4.09975241167869   -0.60584533336377    3.37713537058950
H         3.67669767859134   -1.14358294743248    2.53208586990412
H         3.94348681049993   -1.23436120786294    4.25367502343720
C         7.02939602757727   -0.90664948879111    4.57221575071476
H         8.06971570878856   -1.01448132959052    4.27928898677995
H         6.69930311074353   -1.87140729048824    4.94778605364576
H         6.99674270678681   -0.20388577788251    5.39811759942592
C         6.51870505959421   -1.47007590174252    1.62341625298356
H         5.96069406781359   -1.28479540441715    0.71121813022561
H         6.38607555151416   -2.51733619010627    1.87822851908151
H         7.57001823507049   -1.32330528930209    1.39716474047642
C         6.35568738494200    1.49128255468083    2.67227231353529
H         5.53035984519825    2.12511273389390    2.99505522983356
H         6.49544345826035    1.65483804072937    1.60716478999419
H         7.25710279165091    1.83489181970175    3.17257693288158
C        -2.57559255580876    3.46895746404933    4.58434402372083
H        -3.48090717797270    3.99988270728392    4.35582801839164
C        -2.39795948713864    2.38329986924257    5.35422270112328
H        -3.12765156619452    1.79394966641851    5.87764382528770
C        -0.67820112689865    0.95337321625983    6.16674368062742
C        -0.61096139958990    1.08754099049495    7.56020074348982
C        -0.37819837317348   -0.04199240692336    8.33340506116087
H        -0.34229177309127    0.04075360624726    9.40839946618847
C        -0.20257069481195   -1.27811419486481    7.74591627035387
H        -0.03141269580847   -2.15053362137707    8.35990309470010
C        -0.24826617417347   -1.40021042351519    6.36977599444498
H        -0.11160223364545   -2.37460768954236    5.92856305095900
C        -0.48459603814055   -0.29739595406525    5.56185569079158
C        -0.58435402531193   -0.43444561413446    4.05887899855034
H        -0.17521059920087    0.48696646239719    3.62232211096026
C         0.22024139705643   -1.60853986840589    3.50562168933486
H         1.24364728492418   -1.57260130935528    3.87063733805553
H         0.23878915383880   -1.55479178451787    2.41917967098433
H        -0.22387563124701   -2.56285555309302    3.78107968346239
C        -2.05279070849236   -0.57008701027277    3.63964024909539
H        -2.50123994028623   -1.44138938749210    4.11417852080406
H        -2.12545046694419   -0.68908291790790    2.56032487715452
H        -2.62015786447771    0.31111159905666    3.92634973465521
C        -0.80329291075327    2.43149485730744    8.22711772618678
H        -0.64402895702863    3.20839016350377    7.47098046088725
C         0.19882449012911    2.65189024804763    9.36285007564159
H        -0.06907343436372    2.06787871050742   10.24015068635611
H         0.20683689399721    3.70041874623732    9.65100873420740
H         1.20142900943964    2.37016085443565    9.05425957279002
C        -2.22616365890014    2.56906899847911    8.77899842289786
H        -2.96083706928164    2.54310797267924    7.97976730183464
H        -2.33083641098242    3.51472830753215    9.30704947987688
H        -2.44272195381342    1.75929527548381    9.47318846034819
C        -1.34742986170906    5.01252497577515    3.25223334279404
C        -1.03403637431398    6.27532905026755    3.77740556165691
C        -1.16568577045242    7.38883721921200    2.96034910821409
H        -0.94403663376195    8.37151569801271    3.34486809488959
C        -1.59853965204287    7.26622733426558    1.65321726965420
H        -1.70867401158264    8.14646378492210    1.03638454291967
C        -1.89137670931728    6.01972250435315    1.13910679964439
H        -2.23014760407781    5.93657368501218    0.11829886264141
C        -1.76526411254121    4.87928848204553    1.92110385792517
C        -2.09195581863216    3.52359872195112    1.33501695772317
H        -1.62539621457178    2.76148856515623    1.96919459853376
C        -3.60578613699688    3.28665698798376    1.31528333963338
H        -4.01215433703772    3.26051838448020    2.32187696717119
H        -3.82742766910808    2.33624631514423    0.83399745111048
H        -4.10550480528121    4.07952528141398    0.76191607537179
C        -1.54320380632338    3.37011309854986   -0.08570537197883
H        -2.14503144496474    3.92708865555712   -0.79992860567155
H        -1.56296085181657    2.32310785198873   -0.37872813998424
H        -0.51922557445260    3.72732565163981   -0.14621614842739
C        -0.60833387013930    6.40985868262368    5.22289203931180
H         0.00459925448329    5.52998422172453    5.46268689258712
C        -1.83936670813567    6.41813961941456    6.13676088632907
H        -2.49828317269518    7.24391391330284    5.87334146872503
H        -1.53458798606479    6.53731281478807    7.17467141184701
H        -2.39538243157173    5.48905182515290    6.04738523329063
C         0.23672532415644    7.65333201825605    5.49055758703893
H         1.06470841644597    7.70889440063364    4.78837333302065
H         0.64138657928737    7.60534833736188    6.49936083940613
H        -0.35617467690780    8.56266930997019    5.41612711485494
C         3.32415028138445    5.55850290006790    4.23082748404938
C         3.22222009642299    5.36342144647939    1.79984809464709
H         3.70150813864265    6.34910553694631    1.78349269237203
C         1.84532077214374    5.49390497324766    1.13502552657470
H         1.31469925013657    4.54355358908581    1.21865485894844
H         1.94206612685790    5.76751140919963    0.08626844788837
H         1.25003902797760    6.25104350403758    1.64128183546590
C         4.10735785781366    4.38365637559157    1.02399730352715
H         5.12905088156288    4.42599307481057    1.39440415693584
H         4.10868910326042    4.61422794579327   -0.03989193558041
H         3.72480927902878    3.37569843118865    1.18322676717471
C         3.17650544839224    5.57922138638221    6.64909895157414
H         2.79520942614726    6.61171710408482    6.57683512933952
C         2.29279179251849    4.83939471279216    7.65409683618667
H         1.26450410786224    4.80699080399076    7.30091133130681
H         2.32341164425774    5.33669019378782    8.62161368785260
H         2.65043268605781    3.81914316891865    7.77139057815859
C         4.60850332044426    5.65023098320751    7.20398950121756
H         4.94475827968812    4.66795491730569    7.52458456241212
H         4.63717775458427    6.31847518440306    8.06319998035977
H         5.29543383404142    6.01853759257675    6.44992322229605
C         3.38163925172497    0.70651148629326    3.56228070381821
C         2.37173242862257    0.63547671117034    1.36200940547577
H         2.14857883659331   -0.42825456231288    1.54961956325656
C         1.11180946091100    1.26462508001634    0.76611134913820
H         0.28136047035730    1.18526247950150    1.46379486463752
H         0.84553768553516    0.76665439845479   -0.16423422510471
H         1.29347778598407    2.31746027434211    0.56337466008348
C         3.49877967377493    0.69813211856970    0.31772772779406
H         3.56823836926100    1.69421925660937   -0.11115383931003
H         3.29509309297872   -0.00619580421004   -0.48731736470998
H         4.45396856515006    0.45010805323124    0.76785098663014
C         4.12557206273004    0.91485234645915    5.87870042332462
H         4.66240081937695   -0.02529611614879    5.70532682240942
C         3.08412053611494    0.67068567388165    6.97944432006793
H         2.48083318733497    1.57087086571141    7.11092287944461
H         3.56419785653613    0.41186916927051    7.92103111765730
H         2.41386488838278   -0.13757066912051    6.69431514668554
C         5.13873711572200    1.97556116453546    6.31893200789196
H         5.96965977810241    2.01713544306111    5.61841450305532
H         5.52654775757877    1.75882381756893    7.31275618692960
H         4.64066262972599    2.94497081114774    6.31965288274419

