91
CSD_code = UWAFEF | q = 0 | S = 0 | Stoichiometry = C36H47N5NiO2 | MND = 4
Ni        5.13775126147554    1.93721521714831   14.58235101785747
O         6.84985636067641    2.82780896586800   14.49539869176735
O         5.25748976428758    4.14682008060180   15.23050580282812
N         3.39114544001823    1.54072190178608   14.88859051466298
N         4.86527620366595    0.76519011694202   17.32761699511268
N         6.86620236020066    0.46418681223228   16.59849620606970
N         3.57531169711472    2.17640113602275   12.00926598792285
N         5.67787764470846    2.06007049580610   11.57645813460142
C         2.85832821765806    1.37252245073682   16.13159199969165
C         3.48687193729353    1.03622981601690   17.33565676154456
C         2.72146951517469    0.95642668092185   18.48535751927249
H         3.21077905596451    0.73039802229260   19.41900377539131
C         1.33765700193487    1.16969716057364   18.49131860444575
C         0.70787274153298    1.47357264900862   17.29605297389737
H        -0.35447023541571    1.64385669719816   17.24501300120250
C         1.45353514727987    1.57875804808089   16.13107476584792
C         1.12124482667317    1.90550393005638   14.77845756579937
C        -0.06245301892854    2.22477434454198   14.13609176697216
H        -0.97905819051759    2.23491148882219   14.70538230899815
C        -0.05703069253740    2.53854694242554   12.78376510068495
C         1.15919186373093    2.52444147798528   12.09820521289257
H         1.17391335247244    2.79726252499499   11.05761993045187
C         2.35855539945997    2.19356011916311   12.71140860391795
C         2.35534223002519    1.88022841364514   14.07294650878741
C         5.66292037066584    0.97316048340334   16.25069074774088
C         5.56781552616008    0.15278302727047   18.33090579055284
H         5.13829261145886   -0.12112558433805   19.27076889770800
C         6.82573891152982   -0.03399500579713   17.86980096016975
H         7.67652573769934   -0.48692651234728   18.33645505132580
C         8.03852510425082    0.37622260329974   15.76594575634563
H         8.45358098224257   -0.63351417076517   15.85903919215915
H         7.72212339993987    0.53885223262989   14.73334555760669
C         9.09338505490624    1.41482778877221   16.14812795446432
H         9.35067340927114    1.31043942248852   17.20516981347932
H         8.66405113853428    2.40502772538117   15.99542679730695
C        10.35014321309189    1.26673969877014   15.29586755631106
H        10.80406818470892    0.28947459693282   15.47884542212516
H        10.07282661330789    1.31008857403318   14.24079896838279
C        11.36419455312165    2.36289144968346   15.59732284110437
H        12.25178680639976    2.24414346426647   14.98039592153410
H        11.66532286151211    2.32983864800663   16.64211263829959
H        10.93499334430384    3.34188827464653   15.39716070110281
C         4.79435422691621    2.08377325594105   12.60115766943671
C         3.70512688426202    2.21124598708295   10.64649528285302
H         2.87495509071173    2.26101453062813    9.97490586212952
C         5.02860995002998    2.14088910890669   10.37792934699957
H         5.54886320507984    2.13197040143047    9.44209517170446
C         7.11387455246543    1.99297734453976   11.67018524681380
H         7.47369471354280    1.25799770843266   10.94442515139366
H         7.36789940726977    1.66745861154440   12.67924144380955
C         7.74502013340373    3.36479130082698   11.41501012112567
H         7.19639410899051    4.09873842578018   12.00843472864982
H         7.64235472954841    3.63476559750892   10.36094958679899
C         9.21551314103488    3.40816267357715   11.82298095185769
H         9.29031639467506    3.14401234682337   12.87907429902406
H         9.57677672555980    4.43263126359823   11.70785592793880
C        10.09866577179343    2.47730847849869   11.00026141863184
H        11.14277916966293    2.61169784547437   11.27343505313372
H         9.83744796195185    1.43585817976458   11.17064393384555
H         9.99487033927430    2.69091395817695    9.93835809232357
C         0.59121541783765    1.05809336454494   19.81366213192508
C         1.15016801194451    2.09299563248810   20.80041450726942
H         0.60552209902309    2.04816490441547   21.74158163032072
H         1.04850627937068    3.09452791267558   20.38835865650275
H         2.20200789832764    1.91826032928687   21.00920065593447
C         0.77320951481831   -0.35638649395420   20.38308055614142
H         0.21708804643289   -0.46186822820483   21.31253650573096
H         1.81810616716694   -0.57262810597702   20.58825586588379
H         0.40579031138117   -1.09564329392786   19.67433266729843
C        -0.91024441364302    1.31520231220291   19.65998970417780
H        -1.39562962229045    1.22575428791278   20.63012385015943
H        -1.36384810912989    0.58968344143537   18.98881098152783
H        -1.09675774276954    2.31741392870359   19.28189752796503
C        -1.37000508553525    2.89395014903720   12.09877934490547
C        -1.97323637682024    4.12936877710970   12.78177232134683
H        -2.90651424468698    4.41034239852131   12.29747555903609
H        -1.28293470420542    4.96771876981207   12.71723258553730
H        -2.17749995559592    3.93933269163021   13.83144487367847
C        -2.33597235561979    1.70713838822208   12.22563967988653
H        -3.28020968431155    1.93535978450782   11.73503520110603
H        -2.54051585593907    1.47442719268961   13.26663348419421
H        -1.90778715536518    0.82279927565330   11.75799586144892
C        -1.20515431762035    3.21041720370079   10.60947787003964
H        -2.17737706413003    3.44662043614876   10.18088165073931
H        -0.80105185559458    2.35693718632095   10.06916914625806
H        -0.55730216437221    4.07138451021739   10.46060532733754
C         6.44121343351440    3.95085630638038   14.93283532980618
C         7.47826555460325    5.05302067503902   15.09164860048212
H         7.70784282177285    5.16793048638153   16.14990843633828
H         7.06573530365847    5.99177479137312   14.73104582258980
H         8.38682563453930    4.80672175785301   14.54832405761546

