48
CSD_code = UWALOU | q = 0 | S = 0 | Stoichiometry = C17H26Cl2N2Ru | MND = 9
Ru        8.21982919944375    2.72025395460391    2.81939157545388
Cl        8.08121775373472    5.03094653095349    3.30644986864953
Cl        6.41403998770181    2.54549584610399    4.31581897313004
C        10.18678972963789    2.48189885017790    4.01276176725809
C        10.77193678868817    3.26349967373703    5.16474706300649
H        11.10084679066052    4.23501481830108    4.77833663471709
C         9.74225038269399    3.52239558986591    6.26508063177741
H         8.83551169869459    3.94608266074473    5.83630413403414
H        10.14137855879911    4.23076518182778    6.98687265514847
H         9.48233839786574    2.60783492874874    6.79322697757284
C        11.99270691472566    2.51708680331815    5.71380713239042
H        11.70273884132063    1.54112054792127    6.09918718146445
H        12.44295535139121    3.08668390843246    6.52299783495038
H        12.74007206449075    2.37201870874300    4.93508708560898
C        10.46726156833627    2.87205334360729    2.67024351030587
H        11.10270469162445    3.73459293867557    2.49682835764385
C        10.02627886021495    2.10918744844237    1.58204996510578
H        10.34389684042179    2.35797382000215    0.57533518648935
C         9.21784229465635    0.95329202600145    1.79551826311031
C         8.82232942618009    0.08546283012146    0.63512543164737
H         9.65304656815530   -0.57246456329859    0.37282537534496
H         8.57910749096596    0.68560310223214   -0.24029846195465
H         7.96351152440332   -0.53308794986496    0.88629009087512
C         8.91697607670111    0.57934003727482    3.11717791961617
H         8.36591930130685   -0.33502498410349    3.30829992892107
C         9.41198083287518    1.33650285330185    4.21228517048463
H         9.20415342209722    0.98860923489321    5.21712935085214
C         6.97087325650291    3.00779424935204    1.24294434972283
N         5.90604113589583    2.26183853220881    0.87666188179134
C         5.24031088822311    1.24227405789196    1.65022649192508
H         5.89034773096966    0.96589496113667    2.48388645219775
H         5.07016556929121    0.37308215425457    1.00618334871323
C         3.91418308145319    1.75618964894492    2.21406881349972
H         3.24339316842539    2.02923258602262    1.39607539118392
H         4.12582247270941    2.64662728721991    2.80642670954798
C         3.26441877652463    0.70602787574420    3.10248591230568
H         3.09103911720382   -0.21765050534545    2.55285801662532
H         2.31164984567936    1.06822111106337    3.47828254048657
H         3.91095521691021    0.49770120688626    3.95009288076188
C         5.46056958225239    2.64304401095810   -0.35962641068046
H         4.62050463231434    2.17861003995319   -0.83306020493162
C         6.27119035483563    3.63797381221311   -0.78171882185529
H         6.26713254887586    4.20605704491773   -1.68917369323211
N         7.19234066328810    3.84942150655808    0.20796436596529
C         8.24334776005056    4.82490843803955    0.08086154066937
H         8.63677290769032    5.06175124214289    1.07108341058553
H         7.83954118818170    5.73468043367092   -0.36123149078042
H         9.04107874492889    4.44328216540202   -0.56077108810711

