63
CSD_code = UWALEK | q = 0 | S = 0 | Stoichiometry = C32H23FeN2O4P | MND = 5
Fe       10.50212413707086    1.18965767907225    8.78904400512730
P        10.23840649436958    2.81770873886135    7.33743602802646
N         7.51741511924759    3.28480299602054    7.11737221648219
N         7.45899441442241    3.64628779746272    8.44992994425131
O        11.04235904728228   -1.05046861831814   10.55039995736166
O         9.12793567859281    2.47422475079250   11.04218948903445
O        13.38247060885423    1.60522060946708    8.40636355360612
O         8.97631570790892   -0.66462508958993    7.10306939444878
C         8.67710685991920    2.99403230353131    6.44862105377645
C         8.33951612807502    2.76272518530566    5.12757787387326
H         9.01624070476749    2.51571582710068    4.33335762394157
C         6.95065397946436    2.92289889487330    5.01341162257089
H         6.37019863621778    2.80971948356072    4.11923427485569
C         6.47132234953912    3.24654968530364    6.25536791776224
H         5.47078202822155    3.43871728240681    6.59225269817502
C         6.67273449074878    2.80677197764151    9.26570763849235
C         5.94734207138936    3.29408973616451   10.34896626585814
H         5.94126598004626    4.35048943105040   10.56894814677465
C         5.22435679043054    2.42621011995297   11.14602849898994
H         4.67170305932552    2.81994532745377   11.98628133138563
C         5.19711361250167    1.07011396561589   10.87143155411091
H         4.63425896904999    0.39764033598761   11.50042284155634
C         5.89129052535646    0.58693051007696    9.77555077135924
H         5.87073402394834   -0.46627458339039    9.53861745238004
C         6.61951473026276    1.44462927371133    8.97518069404717
H         7.14848443266325    1.05724061108749    8.11819480472220
C         7.55757587578336    5.03275240446896    8.71323918627602
C         7.20480457455791    5.98373301356356    7.76117101011312
H         6.82861689524894    5.67750211038624    6.79585078807823
C         7.32928770642493    7.33141369993659    8.04673131011403
H         7.04204789804712    8.05866334563490    7.30172794962272
C         7.80858706297953    7.74697066107284    9.27527759120561
H         7.89901136062683    8.79957020374461    9.49609454321792
C         8.17783827949688    6.80176028671062   10.21859545037636
H         8.56625207852045    7.11545080864751   11.17596975663637
C         8.06020457743785    5.45445844242614    9.94269615143394
H         8.35751788014724    4.72041465771153   10.67426354330791
C        11.37019539116221    2.66372626038221    5.90686231634638
C        12.36686988066812    3.59057659661794    5.62538811251791
H        12.47838381408164    4.47572212381613    6.23502919720043
C        13.23034130067404    3.37888031128376    4.56341314157724
H        14.00289053999557    4.10388434002800    4.35341986088044
C        13.11155741840050    2.24515902504040    3.77944355966956
H        13.78734799697761    2.08470028564631    2.95267395856457
C        12.13143601077076    1.30780624189281    4.06695489595910
H        12.04289027284355    0.41422704872714    3.46664187016228
C        11.27419245442143    1.50952391677130    5.13091132411244
H        10.52466077444796    0.76780503119888    5.37146553779862
C        10.56937851102184    4.53614132480194    7.85412577431075
C        11.19639993899209    4.80536564859271    9.06320374336895
H        11.45488329309030    3.98606585534699    9.72249529421567
C        11.48929395631739    6.11120054842124    9.41549822905168
H        11.97757533788358    6.31684213595079   10.35652687618768
C        11.15885960905948    7.15037368345387    8.56295229478363
H        11.38780627442992    8.16889821866469    8.83865575837154
C        10.53571531859683    6.88564613442325    7.35330461020099
H        10.28096549924622    7.69646307360275    6.68707685232028
C        10.23949411457062    5.58479804166238    6.99724118791239
H         9.76051356913787    5.36905812601005    6.05111030842567
C        10.82979836868599   -0.15997948794738    9.85705413981791
C         9.64126878598858    2.01511909475230   10.12147757404653
C        12.25436591887163    1.44594464258857    8.56365832658411
C         9.57333088071506    0.08530791276475    7.73984032226295

