61
CSD_code = UWAMAH | q = 0 | S = 0 | Stoichiometry = C33H23ClIrN3 | MND = 6
Ir       10.05944787737476    9.92308006038455    3.51962271284297
Cl        8.40874582243340    8.41976017837184    2.49748434953659
N        11.23084728815690    8.41935630855226    4.17900122669839
N         8.65241797626497   10.10873911277594    5.16299931448873
N         8.84996355232184   11.25441343818646    2.82435960891215
C        11.03830811378048    7.13777711410331    3.86229103254363
H        10.21502903467499    6.93470019722401    3.19025393403860
C        11.82512541372340    6.11603207615318    4.35680581650459
H        11.62558468369033    5.09676584424514    4.06823336142997
C        12.86602345843157    6.43015107745328    5.22019060993921
H        13.50197001740193    5.65698999445828    5.62453500313132
C        13.07476698042434    7.75520743489973    5.54873993570538
H        13.87949663369407    8.02906389523278    6.21154099511800
C        12.24675254743487    8.74251913493883    5.01657494762768
C        12.37075078076707   10.17115027320416    5.26536497164588
C        13.30847836710600   10.72242124845042    6.13859511178132
H        13.99028173535013   10.08801851459034    6.68506577096504
C        13.36320375426616   12.08865927865529    6.31566536628824
H        14.08187739686519   12.52210183876869    6.99555902358309
C        12.49428830761223   12.90366896507499    5.61008087972102
H        12.53637604971527   13.97721584487390    5.73349700924299
C        11.56235352534986   12.36165179494379    4.73194800548299
C        11.46495354527300   10.98219787272721    4.54683004042455
C        10.69139785539558   13.30336626800271    3.99121368879081
C        11.03284946480689   13.69765855685345    2.70292211482424
H        11.91833330191347   13.28566401320847    2.24285755506066
C        10.24336474263510   14.60449854909403    2.01973452411484
H        10.51534716172423   14.90562904545533    1.01868375009547
C         9.10758736041609   15.12630100633387    2.61538339164273
H         8.49027198891891   15.83342718237401    2.08070083279789
C         8.76656450643685   14.74362161164954    3.90136186529420
H         7.88332585733049   15.15310339432157    4.37102139318552
C         9.55847522627444   13.84141650866032    4.58892021935340
H         9.29851758435233   13.54534985958938    5.59636619338178
C         8.64620064058525    9.51855759718763    6.34741531811082
H         9.48247770697395    8.86487547230778    6.55818720891503
C         7.64351812304096    9.70690279533814    7.28084007824649
H         7.67825411745649    9.19813456215306    8.23078160333591
C         6.59944027716780   10.56422447818620    6.96020822181357
H         5.79873459522519   10.74348304435324    7.66211236136228
C         6.60052168964895   11.18418971443572    5.72617687197303
H         5.80300486159324   11.85755997044411    5.45789738075924
C         7.64205069215938   10.93463095939121    4.83131538622583
C         7.71353702113115   11.51687778686931    3.49101083371712
C         6.68891871201059   12.24184969745079    2.88963757453454
H         5.77069893430466   12.44131511578178    3.41677034926525
C         6.85026933013503   12.67691527856024    1.58517408911189
H         6.06200297249448   13.23118542528147    1.09878695672770
C         8.01363479240026   12.37045339263290    0.90170199225490
H         8.13778533861867   12.66863164881045   -0.12621781744928
C         9.01214289461542   11.64466639903993    1.54378575760271
C        10.25945235914179   11.17182451723885    0.95996123385150
C        10.71437604400275   11.53597206110927   -0.30602630295662
H        10.14305126149589   12.22271910385508   -0.91353239164953
C        11.90169289996267   11.02264462291440   -0.78617661416042
H        12.25768891897121   11.30518608166454   -1.76631192087628
C        12.63482928301443   10.13977047140918   -0.00769638747283
H        13.56355879634923    9.73581052705637   -0.38581102422650
C        12.18707090940891    9.77252316891772    1.25092724807080
H        12.78133652269422    9.08312887167301    1.83591514442739
C        10.99927239307976   10.27528974212619    1.76866229229234

