79
CSD_code = UWANUD | q = 0 | S = 0 | Stoichiometry = C15H39B18CoN2O2S2 | MND = 10
Co        3.38643973667169    2.90417486045112    8.06482981184902
S         3.36614073203042    6.31224952290003    8.11338884019960
S         0.45875065430409    1.32928881126002    8.81511961995619
O         5.65856443149219    5.86949734290384    6.05804648601428
O         4.43341276758673    7.74269264025959    5.71803656811971
N         3.47036374686328   10.05146193884871    8.47012060800128
N         5.24572206204273    8.93927814007301    7.84340145997634
C         3.48715344736565    2.20680288760700    9.99164163927445
C         4.90055985163161    2.24218653902169    9.36851747227936
C         4.09994414636406    2.11361573405020    6.25708919072454
C         3.42670952628092    3.49332333391787    6.11228601591165
C         3.70920167094388    7.70868013169548    9.35471357830294
C         4.13365844100344    8.87910082566973    8.61377943080639
C         4.17894357786598   10.84586064938557    7.60756195431822
C         5.27087632606326   10.15198494297075    7.21037385427029
C         2.21484716525600   10.38177968160375    9.08422987621093
C         6.02006782848476    7.79135406062340    7.47961839778157
C         5.28590780263042    6.96338080151610    6.40023756874690
C         3.66716102498955    7.09863805685272    4.69590412333645
C         3.06113585255618    8.16484411612871    3.80362063538244
C        -1.15436760833024    1.05328472971875    7.98825787616852
C        -2.09361504543041    0.30669158265152    8.91827569180766
B         2.70601540545610    3.68731046985872    9.83774668256620
B         3.86802243856514    4.74189083254810    9.09429212537547
B         5.21967752029888    3.72659516139028    8.70737901449471
B         5.98815426246665    3.21230061797585   10.24713694447760
B         4.83458314335959    2.19384880936346   11.08163910594812
B         3.39727380574668    3.14538817416650   11.39896134040137
B         3.69428716718831    4.79565404529607   10.85531257532595
B         5.31832159270774    4.82624606408951   10.11809250315779
B         5.01665212826733    3.86492900666909   11.58734278451986
B         1.89243250330323    3.50867345039608    6.82753282718803
B         1.60517437491466    1.88043114638696    7.39209009642046
B         3.11545599269809    1.07140512007869    7.08984227655008
B         3.56603799528269    2.52951092716752    4.68382098670920
B         2.11465865860143    3.44238448097404    5.05248410052760
B         0.94309754445945    2.36514898359242    5.81755818213343
B         1.73209158196734    0.77887631369916    5.98776115748623
B         3.35048650918871    0.91382027408405    5.31723798270338
B         1.99719143749246    1.74800181843530    4.52243841129693
H         2.94828761717813    1.26701443723086    9.99604187149804
H         5.28379175623746    1.32414121352241    8.93713357379289
H         5.18026324049427    2.09422887975659    6.34704101513994
H         4.07855566576710    4.35651595886093    6.07593176064152
H         4.48797328081327    7.31912667121768   10.00726678889196
H         2.79918829435014    7.88217683710342    9.92032410639866
H         3.85276113633458   11.83078478056979    7.34624110072048
H         6.05389227907880   10.42245483931597    6.53390596893235
H         1.45388976091551    9.65238854298879    8.80216649583769
H         1.90373242315265   11.36791753388735    8.74743027218837
H         2.30823375883284   10.39092668743816   10.17175410892346
H         6.21050087002030    7.14282127979372    8.33761844540794
H         6.97621141355946    8.11425127596780    7.05960919984987
H         4.32094519208884    6.42744636975612    4.13006179286103
H         2.88892968185055    6.50325851828014    5.18466837612646
H         2.42692872936907    8.82592414359659    4.38813017797582
H         3.84156516481873    8.75629393612127    3.33137984871880
H         2.46218587138465    7.68878298955166    3.03365796681568
H        -0.97356422273870    0.48507810434649    7.07735257818761
H        -1.56358025433260    2.02958374144980    7.72693148590751
H        -1.67237999920242   -0.66076299144978    9.18176429185833
H        -3.05783588977888    0.14922800303368    8.43701335737958
H        -2.24738519424264    0.87186754245035    9.83487187056145
H         1.53502798398237    3.76640126251018    9.85678509518887
H         5.96817858539828    3.82273648410531    7.79986638174380
H         7.13198122175464    2.92877817868537   10.24147754692599
H         5.09879652442064    1.17989823554747   11.61452883563107
H         2.65596498598168    2.82486613207018   12.25324761468235
H         3.20787646717707    5.72545293240489   11.40406464446409
H         6.02494855638191    5.78639663190110   10.12467094738214
H         5.47941993970512    4.15674930282314   12.63188133947670
H         1.41789579478457    4.52745712333604    7.18369110052237
H         3.59658906125346    0.19714792730822    7.72573454259736
H         4.37305240429038    2.84991702263633    3.89104868364652
H         1.85306599914998    4.40870459639240    4.42731437998940
H        -0.21404749953687    2.51627603369599    5.63995347875441
H         1.14828840662209   -0.24805155764287    5.98106819334714
H         4.01313429153678    0.02553557962029    4.91726237423776
H         1.57364450054417    1.43379779351734    3.46838859002944

