66
CSD_code = UWARIU | q = 0 | S = 0 | Stoichiometry = C26H35AuClO2P | MND = 2
Au        9.57070906496532    2.53982725244664   13.89305837536151
Cl       11.83297338728143    2.24263661774825   13.85516797328867
P         7.32729710069552    2.62262411474463   14.00207421664636
O         7.15953993051857    3.63491430713892    9.72057952418317
O         8.76934564254252    0.10086217422423   12.32223586291979
C         6.71894694370896    4.37350460582788   14.02706759571410
H         7.29898886555680    4.85878820942140   14.82558774957251
C         7.10588359463521    5.00804649996089   12.69103906107591
H         6.56932221515484    4.50238319154175   11.88413199359925
H         8.17888211695049    4.86914295634539   12.51829191866869
C         6.75598136482006    6.49252819394392   12.68245769442517
H         7.01717605659461    6.92801423294833   11.71607351449193
H         7.33696234254878    7.00904959731756   13.45045606581991
C         5.26730524981157    6.68443963683308   12.95574374682508
H         4.68990608806355    6.21427444395630   12.15631560460386
H         5.02347875783394    7.74852030861307   12.96597011870616
C         4.88750892120983    6.05251319263109   14.29110588500809
H         5.42970697199137    6.55356719158848   15.09682030007443
H         3.81907939843741    6.18287339810547   14.47554925372136
C         5.22917252215287    4.56341894692226   14.29709322660807
H         4.65083115254229    4.06100380844625   13.51816906785173
H         4.95599737508214    4.13206011733993   15.26315647170867
C         6.82982165472677    1.88045398981300   15.62007956627036
H         5.74925421810528    1.96246038862870   15.78173711718878
C         7.55419619570504    2.59771122100564   16.75840319223270
H         7.22748340882238    3.63902775339024   16.81916802329995
H         8.63050843494033    2.59457462551229   16.55489339492962
C         7.28591203716224    1.90110051374374   18.09022068779112
H         7.83060667025406    2.41343839226048   18.88535235986024
H         6.21929696293971    1.96097171457304   18.32322546775918
C         7.70903443023926    0.43722871111107   18.02708235948082
H         7.50517623173047   -0.05019171958117   18.98235672702690
H         8.78360937968357    0.37983147448168   17.84194869039360
C         6.96455022261024   -0.27928009516065   16.90488824866467
H         7.28031316398806   -1.32286285554712   16.85297932117044
H         5.89115190877426   -0.26479030483671   17.11173455575667
C         7.23702421338977    0.40686798895779   15.57072401818495
H         6.70236121438971   -0.10052080496850   14.76271842145599
H         8.30669221359525    0.35019811899918   15.34437789340731
C         6.23187588867718    1.82550582082203   12.78291944379302
C         4.92576638681560    1.48394730359311   13.13593161831558
H         4.57803884212309    1.63718484031658   14.14622710409454
C         4.05389884483570    0.94645695066142   12.20954613799089
H         3.04724419317284    0.68923487328292   12.50525844526043
C         4.47336094748781    0.74510933919911   10.90513283134052
H         3.79545724110453    0.33078520085054   10.17371671430630
C         5.76674008664989    1.06929442251468   10.54664566108447
H         6.10613455205014    0.90520765216371    9.53464897953906
C         6.65996016854329    1.60432905900546   11.47060625190456
C         8.03414669481295    1.88164712866442   10.99920598461192
C         8.25687147009757    2.88860781368508   10.05428269734328
C         9.53030955259704    3.07993327438483    9.53407722760843
H         9.72864121200683    3.86233570027780    8.82014274676421
C        10.55904496775838    2.24433829138756    9.93009246032868
H        11.54635184422487    2.39044473446057    9.52018703794521
C        10.35322087513967    1.22862334757794   10.84284587756082
H        11.18070520303566    0.60822587057960   11.14031306855613
C         9.08901864702658    1.04967451768263   11.39292804983794
C         7.32886771773872    4.70545208403456    8.82428006727577
H         6.34597657066232    5.16464349263574    8.72694010785151
H         7.66374034682024    4.36000695286319    7.84113098090475
H         8.03739971921005    5.44494401913750    9.21082760690265
C         9.78696668724196   -0.78722739826440   12.73743699307110
H         9.32302996860726   -1.43508499383247   13.47978754476214
H        10.62491451574109   -0.25098151126571   13.19195327944566
H        10.14722923166836   -1.39395089681714   11.90159981583902

