60
CSD_code = UWASUH | q = 0 | S = 0 | Stoichiometry = C23H32AuClNOP | MND = 2
Au        8.15058922238130   -1.29871450613399    9.69012994405872
Cl        7.97464817848808   -3.51098503011489    9.20786098336248
P         8.36474061627066    0.90101801710301   10.07335733826590
C         7.69619501510425    2.04323739394492    8.86866270666480
C         7.56142697735657    3.42235827411408    8.92768406040868
H         7.84808427295159    4.05705775765617    9.74341124883860
C         6.96250291501247    3.83510178760700    7.73319609047842
H         6.72086725033473    4.84175004095160    7.45464067575624
C         6.73754165410326    2.70704238911965    6.98410758210365
H         6.29228681562209    2.59706180419462    6.01461512640816
N         7.17547878536766    1.62886265159265    7.66965523819470
C         7.02150645689478    0.29221239089483    7.22736835451842
C         5.84979856105411   -0.39380955732793    7.50982131433615
H         5.08204879443587    0.10392250508814    8.08490307275851
C         5.68034687489323   -1.69422824687391    7.07031518868692
H         4.77616581952311   -2.23175844128561    7.30627183601918
C         6.68809917247729   -2.30404179910043    6.34641233133123
H         6.57496117261050   -3.32506913814206    6.01903478221781
C         7.85536966753771   -1.62473273582594    6.04420294122437
H         8.62552799044163   -2.12845639987063    5.48315369503309
C         8.03834315390996   -0.31703063067217    6.47724484929855
O         9.13960297021947    0.44805205826885    6.23815760547723
C        10.21695569515522   -0.13524258804068    5.54335876311723
H        10.98777421347659    0.63261035982368    5.49937916247119
H         9.93062739929494   -0.41855103017080    4.52602046547256
H        10.60562235772131   -1.01106002527540    6.07130387351735
C        10.15340136686980    1.34771598733380   10.24998523816710
H        10.52089646073002    0.71012301115024   11.06763597081575
C        10.45265720176226    2.80886773663497   10.57046680692841
H         9.96247026252389    3.10726569195351   11.50005449029782
H        10.07559946676474    3.43821472082572    9.76221324464811
C        11.96149592187821    3.01141133725211   10.69687570187772
H        12.17219377763082    4.05883587064601   10.92232421763909
H        12.34271667670292    2.40774889776423   11.52419221807967
C        12.66486774663278    2.60465129542259    9.40573877414412
H        12.31909464232652    3.24327226748029    8.58962873931168
H        13.74237755282158    2.74577133652844    9.50910527578910
C        12.36054368767918    1.14744528520214    9.07138067504373
H        12.75965263173784    0.50289118037935    9.85831069285015
H        12.84621468857634    0.86912030128916    8.13399140231272
C        10.85529747095008    0.93187618570308    8.95709202961883
H        10.45705981312175    1.52376634208399    8.12854598988584
H        10.64025466399049   -0.12193107884768    8.74996803552895
C         7.53551840415142    1.46065120909468   11.62600473731120
H         7.66103602566000    2.54490813968828   11.73587716078656
C         8.12904470316132    0.73378430347229   12.83036791232309
H         9.17842783079327    1.00948327497734   12.96032555818562
H         8.08451598677348   -0.34525077435789   12.64790387139478
C         7.35362372112611    1.07056662215912   14.10147275576101
H         7.77826820501301    0.52207405494268   14.94427301275077
H         7.45239638856401    2.13853003645741   14.31275327231685
C         5.87795770056273    0.72126620242972   13.94064911984295
H         5.77605105581491   -0.35354238010552   13.77670153246115
H         5.33416115211307    0.97581314004158   14.85218790275150
C         5.28536788271031    1.47249227492516   12.75292369238894
H         5.34472218890028    2.54837051104615   12.93554792710038
H         4.23264183894950    1.21093779552227   12.63161916193708
C         6.04862442358621    1.13269179167416   11.47721299862670
H         5.63282414119767    1.68822842535281   10.63154354683565
H         5.94341231559373    0.06354170234853   11.26125710426160

