62
CSD_code = UWASIV | q = 0 | S = 0 | Stoichiometry = C28H31AuClP | MND = 2
Au       -7.45853716423464   16.79478727478090    2.39801017611507
Cl       -8.93765994929919   17.89249746323903    1.05797216894756
P        -6.01464116037212   15.63600898575029    3.69152411314922
C        -4.72662541371973   14.81131505821705    2.56719242457383
C        -5.45064999924343   14.45772367465897    1.26333955066079
H        -4.73410357588150   14.06833797042581    0.54147359753576
H        -5.92397651895109   15.33778806590576    0.82860376017111
H        -6.21662519296767   13.70218394166084    1.41930561225684
C        -4.01191393866345   13.55382846298850    3.05940279406752
H        -4.71388294167236   12.74435449751786    3.24445923988431
H        -3.41933237338436   13.72676650553392    3.95259177403739
H        -3.32643359031204   13.22198088925977    2.27946427644911
C        -3.71524073836872   15.92086187471198    2.26954586953733
H        -3.10264083912670   16.14776241844254    3.14082596172164
H        -4.23751339335915   16.82920186352148    1.96342698434365
H        -3.05608434921396   15.61892455422365    1.45717762240434
C        -6.98241548759210   14.39102133123900    4.72938537546142
C        -6.19863890592781   13.58684571297596    5.76439324877896
H        -6.88691497086112   12.90704709044454    6.26637191948282
H        -5.76526608460143   14.23736346740582    6.52070233593641
H        -5.41202139421801   12.98791325097549    5.31580197752420
C        -7.71315032894398   13.45332468328388    3.76948693594437
H        -7.03319891416119   12.73130149469845    3.32218746334005
H        -8.19836005433210   14.02240939383502    2.97525926981664
H        -8.48246670274552   12.89997359330939    4.30632506875170
C        -8.00829974581898   15.25599789360186    5.46737446985982
H        -8.68503251171231   14.62605624374340    6.04249188606489
H        -8.59970966504154   15.84318533163309    4.76399301886227
H        -7.50840245394815   15.93683222505094    6.15560728804465
C        -5.31920468353588   17.90661609124052    5.18933944605023
C        -5.06081553050774   16.57009783445780    4.93991354910114
C        -4.02964441866238   15.91992788119612    5.65806640321240
H        -3.82464593926578   14.88210729040363    5.45631937158072
C        -3.28968414385713   16.57485907114340    6.59526783124029
H        -2.50630009387894   16.05927070895355    7.13264399503373
C        -3.52991200815901   17.93498192634344    6.87822203461723
C        -2.77811907046230   18.63820553487917    7.84079224514404
H        -2.00226235789411   18.11037383378495    8.37684870754741
C        -3.02444585797961   19.95923430248259    8.08865444330386
H        -2.44518312002037   20.49428783281531    8.82648777941910
C        -4.03344339981753   20.63029326816193    7.38202006743079
H        -4.21749948737432   21.67483535982345    7.58468573935745
C        -4.78058081959880   19.97382672964305    6.44419307369804
H        -5.55474723489202   20.49718126533119    5.90403309450685
C        -4.55392739025210   18.60808200125314    6.16470250718478
C        -6.36646170565862   18.68208530836982    4.48499044279481
C        -7.63274372195018   18.77894558798217    5.00976431669127
H        -7.87491449614299   18.25592417720330    5.92425233658029
C        -8.61803673689888   19.54986310044171    4.37760944821776
H        -9.60879362360241   19.58779295164843    4.80509385625181
C        -8.33044236419675   20.23199730656750    3.23009720962735
H        -9.09066064524322   20.80747207755204    2.72501057509867
C        -7.03366974528747   20.19125539251416    2.67772057523324
C        -6.70876146782529   20.89045000222696    1.49782437513710
H        -7.48704553122498   21.45196423199063    1.00314202682439
C        -5.44414274267830   20.84506062343774    0.98240113430739
H        -5.20545618918926   21.37499940194426    0.07204409541210
C        -4.44098692032408   20.11419226993793    1.63609225990199
H        -3.44017672356714   20.10173240951488    1.22841802012295
C        -4.72400358126268   19.42014895146430    2.77929115468967
H        -3.94693622387167   18.86796865177457    3.28974650124112
C        -6.02721366622168   19.42257141046823    3.31881519970309

