71
CSD_code = UWAVOF | q = 0 | S = 0 | Stoichiometry = C32H30N4S4Zn | MND = 4
Zn        0.86685465292998    6.32863560483617    9.34042780417068
S         0.57351371377779    8.35115893990968   10.54589645256653
S        -0.17707904103087   10.85728385482885    9.37733244880108
S         0.38926076044319    4.12118481320683   10.08143409445286
S         1.67509254624958    1.77294455989135    9.03061110225012
N         0.13721459935153    7.38902019310023    7.68771393344164
N        -0.01384812126321    8.71591983128397    7.90378396067754
N         2.56754573348035    5.49726211463025    8.45712062916712
N         2.55908902678404    4.14532415847676    8.42917433667994
C         0.16137959059359    6.98801716865534    6.46116751276402
C         0.08134062140185    7.94547132791032    5.31862868457660
H        -0.90857838751106    8.40277293081116    5.31984521704469
H         0.23802370706118    7.44617478665754    4.36763199685669
H         0.80780716681165    8.74488515406310    5.46076183626058
C         0.24871070152890    5.54998390591247    6.21482205178014
C         1.14170132378690    5.03966437349051    5.27284464995912
H         1.77823507068693    5.71421981581699    4.71850155519045
C         1.24628740106719    3.67565182275150    5.07809555150097
H         1.95599071949717    3.28930151440828    4.36022697179968
C         0.44579148914936    2.80390423516108    5.79890602709128
H         0.53018325509993    1.73876317123847    5.64588155743303
C        -0.46520935807178    3.30188851304728    6.71477636748381
H        -1.09310504824675    2.62763456952778    7.27666709846351
C        -0.56063064790175    4.66494763464340    6.92813725575692
H        -1.29008403930495    5.05436669968144    7.62489806741419
C         0.12386948975742    9.16606287079135    9.10587282345508
C        -0.82240307784438   11.45566337467682    7.76492058131166
H        -1.33049051804317   10.61218917928807    7.30344508182399
H        -1.54444339592258   12.22682862952469    8.03850394575698
C         0.24434857289961   12.01770532937579    6.88160500917229
C         0.34982930999309   11.61727318021742    5.55699276472715
H        -0.34686382860659   10.89355444730431    5.16171566076389
C         1.32756041962023   12.15368350866863    4.73675849936444
H         1.39860671812676   11.83374551052847    3.70693247710733
C         2.20898073729149   13.09894692989083    5.23177149878633
H         2.97268929986662   13.51668186149498    4.59239389600031
C         2.10381837002485   13.51064460238609    6.55041303547774
H         2.78451870488383   14.25350967683413    6.94014636237959
C         1.12786682421322   12.97335311963154    7.36963204898908
H         1.04758076915172   13.28494099359593    8.40106676118144
C         3.41509590937640    6.09767393779352    7.69088100659653
C         4.34117966520176    5.34805627141301    6.78983096794432
H         5.04968910229216    4.78389419117869    7.39677065954691
H         4.89079765798029    6.02147970592385    6.13975920501028
H         3.77694565580880    4.62445605317955    6.20235264878309
C         3.44261305818488    7.55847395345116    7.73378881677517
C         3.42598583115227    8.30643853869003    6.55648449610855
H         3.40562024348063    7.80043859176803    5.60194306449331
C         3.39255355064778    9.68639039065840    6.60833058567394
H         3.35526636115981   10.26098892591548    5.69438781078432
C         3.40026679406051   10.33924485861404    7.83069222658827
H         3.37107673408204   11.41699574779036    7.86352553791954
C         3.44458795840431    9.60672601788368    9.00395532286490
H         3.45317491646065   10.10975909848026    9.95881718723972
C         3.46007380078813    8.22428222481601    8.95924196681044
H         3.52472945403552    7.65298986675962    9.87526321173917
C         1.66027854917756    3.51189526580047    9.10829643808791
C         3.12566606567181    1.41127302100318    7.95169105656760
H         2.82618195202624    0.55103393550714    7.35569691468762
H         3.23852582816473    2.29663790580738    7.32961615392057
C         4.34737632284920    1.12215462215892    8.75773880095417
C         5.03129522552707    2.15514088324706    9.38932221921540
H         4.66558813118333    3.16591373438646    9.28561212557463
C         6.15397437938471    1.89078264641253   10.15104142388941
H         6.67640412216919    2.70104662136291   10.63852482127593
C         6.60696273373720    0.58938053223789   10.29217215687078
H         7.48383199167888    0.38257980351035   10.88759959683309
C         5.92846367483001   -0.44541942012503    9.67205623708988
H         6.27432993362031   -1.46256210434641    9.78327699735697
C         4.80265117123279   -0.18120000552759    8.91216011925664
H         4.27165739481328   -0.99211072333562    8.43451261311361

