111
CSD_code = UWAXOG | q = 0 | S = 0 | Stoichiometry = C42H58N2O8Pd | MND = 4
Pd        7.53862364124636    5.06696363741916    4.09407916620048
O         5.70173377184869    2.25650925579250    5.44251039361898
O        10.55406066840096    0.99761898869125    3.81730863072393
O         6.49141023578732    2.27058909026551    3.32611267872090
O        11.73281877961533    2.88428916664434    5.61282531007473
C         7.82574585665292    3.25073010092778    4.92945869035277
O        10.53900148668964    6.76879907465985    2.53954319818203
O        12.27601985025127    4.71852214344216    4.45762478173342
N         7.19570640189513    6.93687406283485    3.22090397906579
O         8.55331970562314    0.38911852721298    4.61479183694889
C         9.22842825404885    2.68892621306819    4.73789875630749
O         9.74671776345690    6.84044299029089    4.64021299803580
N         5.96270748849799    5.43377882086967    5.47516868851500
C        10.07607318702197    3.82351192388500    2.51808736695065
C         9.45895318006877    4.84187583539331    3.40470628913321
C         8.67498586035366    3.07609664559218    6.13067740633810
C        10.16886575036801    3.64062262201850    4.04961790107676
C         9.37410585222665    1.25358104737451    4.41136594185828
C         7.29380101466436    8.05081510692858    3.48041595617495
C        12.35991018731276    8.42428819856614    2.81530478090953
C         3.87301742589634    3.95855119656045    3.13802617056902
H         3.16084637067319    3.36368132505614    3.71481668582157
H         4.63127477584529    4.34260178825536    3.82760532853335
C         9.96427420983522    6.21228689406095    3.61280978855494
C         9.20892470184655    4.32143580486618    6.81722105347257
H         9.25479970936321    5.17887704318932    6.13680375730701
H        10.19978949808646    4.14242943884183    7.22996669982442
H         8.54372537477492    4.57718154880249    7.64324257991606
C         9.17985572575218    2.90093987903060    1.71995442474962
H         8.27243285821810    2.65377419645967    2.25992210635557
H         9.70814513444149    1.98152260009749    1.47372486635155
H         8.91055856070311    3.40037049846740    0.78956968233485
C         5.25215090834915    1.88271274744932    2.75956681635907
H         4.61407432041187    1.45195847412033    3.53814133323351
H         5.48930216249316    1.11532939666654    2.01678622538465
C         4.55639517061403    3.08435885815453    2.08501946865886
C         5.51429453186148    4.95234465584589    6.41792636735348
C         6.58777138379734    2.51099274036035    4.65151365067922
C         4.18830198691333    5.97465240191222    1.71669194524226
H         4.94073962931047    6.34284954039591    2.42146755943336
H         3.70290831685649    6.83716881028233    1.25327858955940
C         3.50496909332975    2.56654799384422    1.09882941543114
H         2.77795308123749    1.94670293382485    1.62900089370985
H         3.98462656778605    1.94410339141022    0.33982044008902
C        11.48374978638735    3.83252874530164    4.69316846644025
C        13.19147983719940    7.71233244503090    1.74655714462963
H        12.88201154293420    8.04789362138591    0.75300007033639
H        13.01453064260695    6.63888874466187    1.80889998259052
C         8.39338911994886    1.96195845913364    7.11739707024068
H         9.31467943123283    1.67186122102101    7.62124425644930
H         7.97171739539789    1.09404768132996    6.62164925576760
H         7.68118962998536    2.30584084611933    7.86562434743204
C        12.60329438185589    9.93405117494911    2.71198944572228
H        12.29029952750672   10.29515151731431    1.72823046843739
H        12.00971945766908   10.45830944085074    3.46579456520446
C         5.57903978923856    3.94741601261158    1.33390425330472
H         6.33273147538258    4.35093829765645    2.04512000937994
H         6.10270645760586    3.33834954709998    0.59450294270557
C         3.16048851019867    5.12984968610625    2.46582528756402
H         2.67043736118660    5.74285098746352    3.23164444859606
C        11.34612507997105    4.12382408534982    1.74870989278426
H        11.10200623437608    4.68653387438485    0.85009111951837
H        11.82448203644093    3.18851292474653    1.45938984942487
H        12.04510950921645    4.70432098862383    2.33858291698229
C        14.27516070820170    8.24406961287879    4.41109132021020
H        14.57644121757853    7.89342316429682    5.40425121618967
C        10.86378666490237    8.15146272369545    2.59543945326664
H        10.28826887636276    8.61255607004512    3.40594586693076
H        10.54641994941788    8.56609455765994    1.63197208372412
C        12.79345511201487    7.94236856379499    4.20105601045211
H        12.19607087568548    8.44160295415833    4.96804526334363
H        12.62071213617120    6.87028727081835    4.29110215802550
C        14.08730472626384   10.23357423972013    2.92371478673245
H        14.25125810161648   11.31534289547024    2.84618104409749
C        14.51475110057097    9.74936740491471    4.30795236567578
H        13.94215549733258   10.27153807364630    5.07838107756051
H        15.57237086978339    9.97267052045533    4.46801868884146
C         4.86736479579111    5.11463343455779    0.65269554747389
H         5.60484731080186    5.71869004779273    0.11235544138781
C        15.09357568926663    7.51732446005509    3.34600115547311
H        16.15981594427033    7.70150380078693    3.50030292856337
H        14.91863138117043    6.44280489343037    3.42473290702665
C        14.67354834973427    8.01005019674922    1.96243315406725
H        15.26164725055307    7.49348157030776    1.19496393274619
C        10.77666219149414   -0.35383727076698    3.45554937726248
H        11.72407342371146   -0.37605130258007    2.92224853697277
H         9.96621096067297   -0.71582049006092    2.81827750732765
H        10.82604755690210   -0.98438349393748    4.34615439696410
C         4.91261138828059    4.34559359793186    7.55980962857558
H         4.91583270555909    3.26891362381428    7.37650297978059
H         3.88897633499238    4.69753141297189    7.68125926638385
H         5.48988242203141    4.57083395679919    8.45508403642657
C         7.40074564077621    9.44723589204637    3.77125850734334
H         8.07221995431637    9.57303406881649    4.62089331804782
H         6.41914194220542    9.84836930930006    4.02275543990452
H         7.80272783261955    9.97751014202990    2.90820741800702
C        12.98274992969972    2.98164243909652    6.27227940608144
H        13.10793402714389    3.97588464082644    6.70851545901449
H        13.79971345035138    2.80502857736847    5.56894635242193
H        12.97992004808684    2.21926951843502    7.04758275447845
C         3.82141766816253    4.58720790271165   -0.32904378208185
H         3.32090166753116    5.42237808452261   -0.82474902853590
H         4.30514772365813    3.98236269115243   -1.09926394477639
C         2.79743939185932    3.74317514176163    0.42773560792726
H         2.04713541081818    3.36111669191807   -0.27410959211240
C         2.11154024412844    4.60193028370319    1.48847406541724
H         1.36875454242180    4.00712372793132    2.02508758281648
H         1.59161458258198    5.43660586893036    1.01221685377877
C        14.91266462794810    9.51555438540999    1.85732886017990
H        14.62752199807468    9.87012411305043    0.86364031022093
H        15.97321813514302    9.73613212071002    1.99957588724468

