111
CSD_code = UWAYEX | q = 0 | S = 0 | Stoichiometry = C50H48I2NO8PPd | MND = 4
Pd       -1.30546534418364    5.81170651505040    9.83986418825180
I        -2.36677576054409   11.56337092582257   16.45865242603615
I         6.38125502329789    0.09974025111455   12.42726055806141
P        -3.10003113860010    4.34190178650197   10.01669159137950
O        -0.01461807869218    9.39132372003937   10.18805326680581
O         0.65030836354970    2.90049173672564    9.66721460484123
C         0.20807104432329    7.12911781391331    9.52412654081034
O         2.23933932950027    3.30498564110405    7.44439501776403
O        -1.67466253847800    8.43982196513680    9.00300733105611
O         1.18735930702504    8.91333069168550    7.56854247932848
O         2.03287733900409    7.29521893385276    6.27553712547818
O         3.27018209339553    5.22376283767566    7.93457382436689
O        -1.49685509798582    2.69041979528884    9.07433209118824
C        -4.66041149533564    6.56695582703449   10.02570586665017
H        -4.01716004112060    6.80097878704765    9.17629035641433
C        -0.19171662079870    3.91751737274969    5.99518099664462
H         0.40481144874200    3.08500458153245    6.35284129324974
H         0.27165464371911    4.31815686300509    5.09471424630172
H        -1.18249090859712    3.54514875159926    5.73965318272880
C         0.94149064616143    5.28017393350520    7.92828343129455
C        -0.79327492322312   10.56313330465611   10.34272141561537
H        -1.70002577880859   10.46866252830528    9.73085426749278
H        -0.19761627267949   11.40381929408898    9.96580802956879
C         0.56958552630365    1.61312369372603   10.27193215403584
H         0.23727179947448    0.89082060666413    9.51430577111208
H        -0.17783461277355    1.62919648086515   11.07309196270790
C         1.52064073264012    7.63001348321840    7.31552465172441
C         2.17103606789007    4.47835688624613    7.73364241203658
C        -0.34194178275250    4.67391030359245    8.48250828766047
C        -0.56044462976821    8.36261676020503    9.50569175131186
C        -2.13223790522688   11.73003104854867   12.11483897924976
H        -2.63680111665230   12.27834862578531   11.33289177021987
C        -1.15173140836910   10.80111220257053   11.78483477972693
C         1.98097008265315    5.75105674556133   10.72404130359742
H         2.03868262338613    6.08707244770578   11.76021130202387
H         2.94168160276798    5.31906293769091   10.45301995657194
H         1.21480124437547    4.97322554812962   10.65554900974957
C        -1.10585393838105    6.19640673616901    6.53634660327121
H        -1.97938074655185    5.83133926285532    5.99673788360141
H        -0.51599383191336    6.79590230824788    5.84518227343130
H        -1.45432353637226    6.82867333188977    7.36034333102870
C        -4.19306836850607    3.54880074895298    8.79179343221653
C         1.92918253388937    1.25350604147723   10.79209455896672
C         2.60169049938271    8.09420235539447   10.08352208663316
H         2.32244177109694    8.97512460392874    9.51804428091186
H         3.60876414271430    7.79072977230986    9.79913699869620
H         2.60624195451963    8.35693039121073   11.14035026300610
C        -0.45479560571357    3.34155673569389    9.05389410328206
C         1.15146031302340    6.69390973933931    8.40712960689699
C        -5.67723518159779    7.42134880170613   10.40404005614473
H        -5.86192165757809    8.32765424691256    9.84609798330897
N        -1.91714442378697    6.92692430592859   11.52861371833856
C         4.30125705988695    1.07660674718096   10.42627110875980
H         5.16030705610039    1.18956222303371    9.78220976896410
C         4.51056111508020    4.56513612512896    7.74910055821748
H         4.70373381665930    3.87930367275854    8.57876624099536
H         5.26877212678045    5.34381149978660    7.71754907980771
H         4.50550883748028    3.99858072851678    6.81583178926624
C        -5.20021307753561    5.09584776637594   11.85019370703422
H        -5.00643719981102    4.19661563404052   12.42046196123737
C        -4.42679025389109    5.39139108936926   10.73694246051005
C        -1.82213356148265   11.25113882282658   14.43403041095990
C        -3.80633821366790    3.55318302690761    7.45924958142819
H        -2.84912733493750    3.98129926786980    7.20585549457136
C         1.64631881453456    6.94387934752999    9.84433444138691
C        -3.46878671372095    8.31508603051193   13.04374006036337
H        -4.43605773699315    7.81582100478508   13.10930280988568
H        -3.60474196408684    9.31489486843641   12.63289953173852
H        -3.02633027420720    8.38949491793400   14.03651810979714
C        -0.50675804345971   10.10868190036967   12.80074828789999
H         0.25575053641228    9.38938709227224   12.54579087287789
C        -0.83865299407606   10.32903268969500   14.12598397620549
H        -0.33029236900871    9.78655257586269   14.90855679672960
C        -6.46253834254691    7.11180909614916   11.50624498045805
H        -7.26323738106648    7.77407141289503   11.80292140957050
C        -2.96140283007344    1.07282587407801   12.52740622900463
H        -3.40492545495681    0.09191138051467   12.61844363273376
C        -0.29440222235279    5.01270247919058    7.03693835420790
C         3.03778883110445    1.39817401317211    9.96565295669114
H         2.90103774580631    1.77614515536369    8.96365463265655
C        -2.61219578734691    7.55691327061753   12.18843593919409
C         4.44935905546616    0.60066713962087   11.71660163408617
C        -6.21665635798693    5.95758054763211   12.23230046392277
H        -6.82272536583503    5.72409718966039   13.09655212194527
C        -2.47051622631204   11.95869745015130   13.43647432639156
H        -3.23374015645162   12.68023488067461   13.68420657241849
C        -1.79211925839125    3.56661841362079   12.27340308988929
H        -1.29949940599728    4.53428856024449   12.14412869126195
C         2.09911770054985    0.78210709580535   12.08586710940235
H         1.24273026658563    0.67101249852150   12.73501330023042
C        -2.76809663823480    3.16296097272911   11.36289427224166
C        -2.01037687386005    1.48765765495897   13.44580335830490
H        -1.71889799890759    0.83357302478834   14.25485459816932
C        -3.33852736688658    1.90264566689296   11.48548281469957
H        -4.05243773266505    1.56168544347153   10.75171093742412
C        -4.63031607777285    3.00610013759285    6.49284116384280
H        -4.32523565185209    3.00770443452780    5.45630588539703
C        -6.24847103827711    2.47112089598432    8.18074962784034
H        -7.20543417662938    2.05468289733610    8.46129330099026
C        -5.84865692199735    2.45556947157182    6.85426370985429
H        -6.49212596197723    2.02200336278521    6.10271995829667
C        -5.43140841289805    3.02648708945095    9.14894960912518
H        -5.76486114140158    3.06385248232575   10.17672603829009
C        -1.41899299021301    2.73463817639899   13.31365440848062
H        -0.65837533968966    3.05091667261762   14.01331167690541
C         1.48319302448814    9.84023515511092    6.53707651143227
H         2.52556488977536    9.74351244393974    6.22611934935268
H         1.29445497531288   10.82882576477013    6.94891579588535
H         0.84069724957865    9.66088184586651    5.67224551296538
C         3.35911424370194    0.44844687831815   12.55230208711531
H         3.48597811627015    0.07833502948632   13.55818148788041

