75
CSD_code = UWAZAU | q = 0 | S = 0 | Stoichiometry = C32H32N2O8Pd | MND = 4
Pd       -2.15736919739108    6.83085964303380    3.96591280113616
N        -3.14911381110429    8.45333013812518    4.88023710214433
C        -4.20918110859218    9.46848656653883    6.75485239048630
H        -4.85306420059846    9.35941962145921    7.61242867724964
C        -2.59416471826681    9.63613140135698    4.55905578277291
C        -3.92964074937062    8.37290706459044    5.95324906210159
H        -4.36458400584999    7.40328039000692    6.16530280133001
C        -3.64773857716297   10.69495928988623    6.43187254996473
H        -3.84004634846902   11.56832406335083    7.03635240201335
C        -2.82693071291231   10.77931465641350    5.32093291193094
H        -2.35462515535039   11.71339026619823    5.06076286995718
C        -6.44649441149227    5.04637892728237    0.24575117412275
H        -6.68120089850868    4.36221395439138   -0.51409363754379
O        -5.79371923653625    5.85232293843980    4.68169492379607
O        -3.26745100697520    2.00236075069110    2.84865984885380
O        -4.64860888546419    6.36076260521706    2.80683390982453
C        -3.43577610681281    5.34858673417466    4.50117284468057
C        -4.76019458946040    5.80343088859793    4.05606087508770
O        -5.01147097959443    3.30712614433773    3.35556544380533
C        -3.24937650655138    4.36003714321349    5.60121771412028
C        -5.85900989414169    6.76720249042136    2.16862449570966
H        -5.69577568344063    7.77086412369088    1.75908502449862
H        -6.65951505154579    6.79221523734686    2.92158922495025
C        -3.70483974524615    2.97476387235287    3.41056300603161
C        -2.88597475408512    3.95875141540795    4.16281260907745
C        -2.13489079220415    4.62063525912003    6.59796622173376
H        -1.36998906414219    5.27508782982741    6.17629154930833
H        -1.67661922553699    3.68669486627199    6.91531810045869
H        -2.55560909541912    5.10797768199439    7.47766446459755
C        -4.42803206035647    3.66963875112595    6.25663060980798
H        -4.75011565297234    4.23892108291214    7.12691423780865
H        -4.12508587911838    2.67565633953988    6.58263241049516
H        -5.27124834111731    3.58473477722476    5.58157317226343
C        -5.84575575436373    2.41539918922659    2.63647514782415
H        -5.49884234178628    2.32524520571208    1.60503891073445
H        -6.84391845323923    2.84507452940315    2.66730936249075
H        -5.83320389676831    1.42674784264084    3.10050867152644
C        -6.20880356666477    5.84428044549806    1.10522506609182
N        -1.16644596155791    8.45328575963118    3.05072729030506
C        -0.10624989474250    9.46844860320897    1.17618639443796
H         0.53765548517702    9.35937092740951    0.31862955033349
C        -1.72131087523050    9.63611733146662    3.37194352251925
C        -0.38587098129107    8.37285702987503    1.97775115014640
H         0.04914091597710    7.40325283515192    1.76575073411923
C        -0.66766513523157   10.69493270683279    1.49916034375892
H        -0.47535374155202   11.56828979112186    0.89467062459968
C        -1.48847306123497   10.77930685636045    2.61009850279144
H        -1.96076285052950   11.71339174336664    2.87026575960919
C         2.13188762978025    5.04568531245903    7.68422913164401
H         2.36557258216938    4.36268465446210    8.44544232283644
O         1.47840078045098    5.85251881440814    3.24928368912545
O        -1.04775477988932    2.00232320010490    5.08224562503778
O         0.33320192467041    6.36088710618115    5.12411406825240
C        -0.87945245053200    5.34856170296720    3.42983398691335
C         0.44491300133320    5.80348056844340    3.87497798656327
O         0.69623917950299    3.30717395604804    4.57549569663280
C        -1.06591616566236    4.36004820448685    2.32978322217894
C         1.54357850567969    6.76736334955741    5.76238565603694
H         1.38029991214156    7.77095717827237    6.17206501544179
H         2.34407261474682    6.79251372382815    5.00942302508018
C        -0.61037581842432    2.97477584382528    4.52041652846653
C        -1.42927715356093    3.95876255567691    3.76821043158962
C        -2.18042997601080    4.62066563938453    1.33307231554148
H        -2.94531491667071    5.27511175419495    1.75478821027521
H        -2.63870908591803    3.68673353934841    1.01571041591636
H        -1.75972590908720    5.10803023930148    0.45338047690975
C         0.11271561241850    3.66962205398457    1.67436817620095
H         0.43476782514939    4.23886338663427    0.80404514296202
H        -0.19024773852670    2.67562232902494    1.34843085842766
H         0.95595263610873    3.58475572180601    2.34941162467287
C         1.53048134141418    2.41536571194313    5.29450952228699
H         1.18367967857537    2.32511155240141    6.32589843611953
H         2.52863963318219    2.84485644395587    5.26371765449880
H         1.51787294152930    1.42677650997917    4.83052173609432
C         1.89344475437861    5.84428123591754    6.82561043840085

