39
CSD_code = UWEFOS | q = 0 | S = 0 | Stoichiometry = C20H12I3MnO3 | MND = 8
C         5.62850921639495    4.11911199626981    1.61928928034369
C         8.10325070429076    3.70354130778882    2.02981101226619
C         6.48598958185773    1.76635040645865    2.79662388778664
C         6.43012608387221    1.12238106369556   -0.04613066973112
H         6.00078481482161    0.14819453178009    0.15037555320327
C         5.71947764506563    2.25419016380793   -0.51830769268268
H         4.66821065309063    2.27075575806570   -0.77740487190160
C         6.66425169437762    3.25577801995600   -0.84392096867818
H         6.45182725022874    4.18146096361336   -1.36222582819274
C         7.94783750981066    2.75614207877575   -0.53626983889675
H         8.88594137799872    3.23216055054457   -0.79070151945497
C         7.80017639947749    1.43542270568356   -0.04810085612148
H         8.60540708501678    0.73725459021337    0.13047145830410
C         7.16729752971015    0.46362545471440    2.95537763571066
C         8.56030772889290    0.37765831457235    2.90042457973719
H         9.14053165800535    1.27984640875056    2.76038392148713
C         9.19049358264522   -0.84019546162257    3.06677379192748
H        10.26861006791007   -0.89348953783893    3.03209522906670
C         8.44538804108587   -1.98958719498508    3.27910613033184
H         8.94096047588397   -2.94168725791939    3.39609119965489
C         7.06434416001240   -1.91134554519696    3.35153818081711
H         6.47927721674738   -2.80192980160679    3.52632989613650
C         6.42773150710866   -0.69319429911611    3.20864759804937
H         5.35078019391244   -0.63636852394876    3.26318377489016
C         4.89885940286948    3.02028930733385    4.03658649472639
C         5.34848076980173    4.12833119820935    4.74664016496627
C         4.53157617741741    5.22206376628918    4.96008346342961
H         4.90068664643583    6.07772954868562    5.50286210723155
C         3.24184275336687    5.19880156726288    4.45762528426974
C         2.75679713616127    4.10219347471401    3.76554982719624
H         1.74901770366901    4.09231861936148    3.38117347423519
C         3.59222947637507    3.02132803114924    3.56149635194347
O         4.91301422040508    5.02776083203704    1.71594270812677
O         8.99900854389370    4.27255140909729    2.47811876330691
O         5.70661008452723    1.92164401285397    3.89226939528786
Mn        6.76741445962105    2.82743548794345    1.25570639520368
I         7.30498311223726    4.07638688825971    5.50286520989944
I         1.98732132150878    6.86003173271298    4.76000706351776
I         2.91914601349278    1.34845743163492    2.48691241260657

