39
CSD_code = UWEFIM | q = 0 | S = 0 | Stoichiometry = C20H12Br3MnO3 | MND = 8
C         0.58678311696112    4.15497898734201    4.21089553661979
C        -0.41523028926681    3.44847737709874    1.97168965778544
C         1.26331485828359    1.75249396052378    3.02009760984655
C         3.02897670535362    4.71435030339216    2.90863320897505
H         3.60174036342664    4.97645865928068    3.78931181039791
C         3.29937686074629    3.61978737685641    2.04981720838169
H         4.08602778231553    2.89002465264877    2.19139117262560
C         2.49040779973787    3.75092736228284    0.90840509682278
H         2.56180373862805    3.14885306266278    0.01409972479286
C         1.72564483464473    4.93456813433928    1.04540012160986
H         1.11558245439705    5.38307764266545    0.27216051067340
C         2.07156246705437    5.54009159475626    2.27210206913461
H         1.76492563512603    6.52371650778984    2.60223217416772
C         1.87039139291581    0.80577092941666    2.05973304656731
C         2.88810560502944   -0.05391001014421    2.47797932803496
H         3.24309601407829   -0.00220199384510    3.49653570537426
C         3.46355594322861   -0.93763149539229    1.58480019803149
H         4.26311053452133   -1.58430342326318    1.91413655219613
C         3.01266908450859   -1.00028054649330    0.27648056567322
H         3.46046785374832   -1.69530755285613   -0.41795622977562
C         1.97773761881819   -0.17600699482985   -0.13673702832275
H         1.60959303272870   -0.23751497701002   -1.15023504682772
C         1.41110475261970    0.72520757146697    0.74373413069000
H         0.58583571413013    1.35141527084079    0.43236988000191
C         0.31115997176049    1.58569224745219    5.18946033138754
C         1.13159492263998    1.95406297207165    6.25418525126808
C         0.60693046841044    2.48067084980198    7.41968529787323
H         1.25676121751076    2.77055469326607    8.23060075561092
C        -0.76668014980866    2.63933297552890    7.51611825788352
C        -1.61515616296589    2.26799901738907    6.48531852323783
H        -2.68295594096913    2.39179329671177    6.57267487537967
C        -1.06654572879010    1.74184561403951    5.32932048467209
O         0.20394761984953    4.65151545588737    5.18718555834311
O        -1.45498641677075    3.36786576082119    1.48270446592393
O         0.83825296150851    1.00450827342793    4.06492875808361
Mn        1.21505391799103    3.60983481538182    2.65946650924207
Br        2.99335190515129    1.73898689275381    6.06261974510694
Br       -1.49839830590823    3.36959856189487    9.09570303011606
Br       -2.16981415334549    1.20079617404289    3.89955115239620

