39
CSD_code = UWEFAE | q = 0 | S = 0 | Stoichiometry = C20H12F3MnO3 | MND = 8
C         4.90186679079057    0.42307170697377    2.87206969560999
C         2.85840628120787    0.44805659028422    4.35468175849555
C         2.89287593258940   -1.28505333351102    2.62503052650847
C         2.00397823960512    0.89217755764871    0.77884845934880
H         1.56028568187769    0.18472048078275    0.09064351499545
C         1.34606197335913    1.52274427982218    1.84891526819878
H         0.30137922993683    1.41026376771548    2.10230939113758
C         2.21705713847135    2.51235213103475    2.37875306584585
H         1.94457033653934    3.26356943027981    3.10863715856597
C         3.41049767906448    2.48603850335711    1.63231532889227
H         4.21755435751790    3.20273701587516    1.70201158885449
C         3.29512016901221    1.46027543924417    0.65981504693757
H         3.98083645558471    1.29500579401521   -0.16134068392412
C         1.70692018259102   -1.97705641673663    2.08161289177572
C         0.40753164242635   -1.64064914004311    2.46520444923466
H         0.26556951815630   -0.88314207278426    3.22225461337335
C        -0.67395068363057   -2.30585388401774    1.92105718406831
H        -1.67457133418058   -2.04563266811107    2.23307622205861
C        -0.48017963903535   -3.30395375666670    0.97894092061177
H        -1.32838126172605   -3.81508677165258    0.54892640701849
C         0.80545839885385   -3.64604405828036    0.59182599381343
H         0.96233225390393   -4.42142004481801   -0.14321417550280
C         1.89358932117747   -2.99876510865777    1.14481789713301
H         2.89565125691223   -3.25333138226814    0.82884200330562
C         3.48890284680860   -3.36723812420122    3.61576611702038
C         4.24537983026494   -4.48802797429019    3.26357924504259
C         3.99164947164688   -5.74451920054397    3.78020620274821
H         4.59082529020316   -6.59000085823734    3.48477924260223
C         2.94914043582680   -5.88264074587733    4.67952029215712
C         2.17353686830386   -4.80657689292742    5.07322292284313
H         1.37340279254542   -4.92397751833697    5.78518046054885
C         2.46016554583866   -3.56412774402035    4.54101551018655
O         6.04023355361076    0.39249837072083    3.03091454234552
O         2.67423018662929    0.30511731263168    5.48387854220101
O         3.83054144143950   -2.12729284372648    3.13204833864238
F         5.23516509136038   -4.33977839962230    2.37676531984166
F         2.68299463766918   -7.09415715277216    5.18429653253349
F         1.73287988473920   -2.51012211021133    4.93352420738960
Mn        3.15459220210437    0.56741982192686    2.60526799754073

