50
CSD_code = UWEKAK | q = 0 | S = 0 | Stoichiometry = C24H19O5PW | MND = 6
O         5.81139245661497    1.12874548957065    0.55617867767581
C         3.03177930685932    7.71492787769671    4.37212523198062
H         1.95876911378104    7.90688387207590    4.35197767846925
C         3.78358283573528    8.33597200941839    3.18213519368805
H         3.93807359977746    9.40763983103613    3.32577328862999
C         5.12143785670022    7.55617469308525    3.18372176444240
H         5.24474285864086    7.01701243649663    2.23997751108945
H         5.98283986445409    8.20958774879158    3.31580653505094
C         4.95983675338992    6.57290859074030    4.34296654945845
H         5.63759831889478    5.72045419041811    4.29713485657857
C         5.03686283215249    7.35324624239319    5.65954104895498
H         5.91221264000155    8.00055772511526    5.69071241403526
H         5.09329700659839    6.67119454203995    6.50810746952850
C         3.71575155544838    8.15004020555495    5.67126311046777
H         3.10203905084940    7.88534936671838    6.53272460919290
H         3.88048308797907    9.22681844552049    5.69542293195326
C         3.46608986585721    6.25029804971733    4.26402829726571
H         3.12879574313868    5.63763300775690    5.10859416461945
C         2.58593926536466    6.81275311979374    1.61496640295903
C         3.03118252491939    8.10160070159067    1.90691357060162
C         2.77455306741111    9.11949416960879    0.99945899988647
H         3.11627462766954   10.12177063591969    1.21652756234191
C         2.09381896779597    8.86259950060626   -0.17802111787377
H         1.90783905357522    9.66496284150869   -0.87630193079709
C         1.65290124931846    7.57979340163267   -0.46436127220744
H         1.12345890375338    7.37954232125971   -1.38365449417243
C         1.90072853605941    6.55704962804494    0.43054045391105
H         1.56146429410509    5.54809345364464    0.22488176308737
C         1.22463817629132    4.97733414821215    3.26609985725702
C         1.07051219600894    3.78158025755458    3.96287338927734
H         1.93310509439537    3.14709291228629    4.12831917015730
C        -0.17063276404340    3.40050770525181    4.43630004591409
H        -0.28070495527565    2.46885314146013    4.97136656209847
C        -1.27279404770852    4.21135733733851    4.21703071855467
H        -2.24495973259523    3.91191956359831    4.57914650979068
C        -1.12571330243583    5.40490108583811    3.53104352943009
H        -1.98293714598425    6.03990581227459    3.36081797292572
C         0.11658755246303    5.79135198347677    3.05871761548170
H         0.22019839000967    6.72281777680323    2.52016410769363
C         5.23322651578957    2.00960097233415    0.99910700690189
C         5.99776491998054    4.45349556873916    1.96760495540345
C         4.11206392332811    4.34599463192936   -0.05917537302342
C         2.51559545080977    2.56772771275092    1.45353767961745
C         4.45748315080663    2.77451593195405    3.59661720619213
O         7.05549308029063    4.88594448511224    1.99442560082497
O         4.11224234917549    4.79154127239734   -1.11034532390749
O         1.55531758290312    1.99718260791413    1.21671129479516
O         4.65380302536797    2.34474995791174    4.63776939040849
P         2.91173221454102    5.41150001654897    2.71698624313897
W         4.23383308902699    3.54212102055815    1.76594057024687

