32
CSD_code = UWIFOW | q = 1 | S = 0 | Stoichiometry = C6H19N4NiO2(1+) | MND = 6
C         6.80577373577816    6.23180204859390   25.84541969974863
C         6.95498999319643    4.90034828342554   25.19224670497793
H         7.29792327107695    4.16543131743985   25.91593253638331
H         7.70947409742699    4.97209738382725   24.40969854505933
H         6.01315044746536    4.59383705696705   24.74661698373112
C         6.14685773669990    8.20040621213324   29.91100546532398
H         5.66689522920632    9.17669271806792   30.02221683906777
H         6.09297998269824    7.67942781575528   30.87451437346368
C         7.61401273302954    8.38810004963949   29.52135633873407
H         8.07742625267132    7.40731187105218   29.39252678697932
H         8.14423860506986    8.93220045198885   30.31021269595832
C         5.30234441658523   10.25317243751401   25.18761302951193
H         5.04596883467591    9.48643248690847   24.45302057668309
H         4.61251380470415   11.09667131388348   25.07820119386107
C         6.73905664134735   10.71772203669525   24.94303545050300
H         7.01644808167223   11.46789302785002   25.68877076148216
H         6.80537698562164   11.17905467464432   23.95040202786986
N         5.47637336625149    7.47393338632837   28.82814444584406
N         7.69580056302836    9.09880440101693   28.23364360716245
N         5.19994815438227    9.64789436879826   26.52657054068357
N         7.62528957895726    9.55977736769809   25.09730924036201
O         7.62764873969424    6.66245192654413   26.70330691847463
O         5.85326505175392    7.01617664117686   25.57375176445499
Ni        6.58266537627052    8.21756572367318   26.81453668528842
H         5.76033265087071    6.49473906905077   28.86450827604472
H         4.46948314612011    7.49043533304144   28.96130691411282
H         8.65203330099357    9.03599138154350   27.88369081420336
H         7.48945980795631   10.08592339771660   28.38141378009142
H         4.30916962294733    9.15554193004489   26.59743159168628
H         5.19719198244065   10.38566952624954   27.22968882597409
H         7.52584515504955    8.95918541640810   24.27876866317937
H         8.59596265435773    9.85800894432476   25.12383792310117

