46
CSD_code = UWIGEN | q = 0 | S = 0 | Stoichiometry = C17H21Cl2N5Zn | MND = 5
C         4.70125808669847    1.73896313532542    5.07090434560012
C         4.99716591608562    0.62352148360121    5.89906982645287
C         4.62904918363264   -0.48400795936950    5.17314005696263
C         3.62056195229569   -0.67135194959085    2.86937888710861
C         3.65873924928035   -2.04725782891258    2.63426012079217
H         4.16276394599347   -2.72676430368870    3.29406558986028
C         3.01807075683109   -2.52795273959650    1.50561238426990
H         3.01008312949904   -3.58990500403601    1.31199081402836
C         2.37124172571664   -1.67013395358893    0.63100960382727
H         1.82526228949784   -2.05596417824651   -0.20957366825624
C         2.42931422538800   -0.30745621955770    0.91416508298216
C         1.40730686618391    0.74002323485114   -1.13977462316205
C         0.85991147641174    1.98865952805195   -1.33022015412206
C         0.98134637895234    2.65259447118437   -0.08126715158869
C         4.89642700736499    3.17121606371084    5.38489686064211
H         5.91030016104995    3.34866424666514    5.73979051491507
H         4.20320335459868    3.47028198749305    6.17028925034890
H         4.70543701662757    3.77339583463978    4.50092407215575
C         5.56446538136915    0.70370771130923    7.27204295231032
H         5.90351791737574   -0.26813847498623    7.62007722969214
H         4.81265195636846    1.08008825891977    7.96526589578865
H         6.40692467006169    1.39288331424375    7.28729420250087
C         4.65302896700251   -1.90724172263339    5.59687915539344
H         4.88475345754678   -1.95364436398083    6.65763122156212
H         5.41456338479087   -2.47448908328204    5.06080321210383
H         3.68007000475024   -2.37095148688239    5.44296207834435
C         1.60986102594940   -0.35186513114983   -2.12656382812402
H         0.84210814634104   -1.12046096831504   -2.03206551349708
H         2.58941343465098   -0.81004394205716   -2.00382438060549
H         1.54602447891553    0.05897135466197   -3.13112582457742
C         0.25444407635130    2.56593528255847   -2.56114897247554
H         0.38289754511788    1.90201367810909   -3.41147637873939
H         0.71590268233581    3.52477548649908   -2.79049760416552
H        -0.81231845299712    2.73207627473144   -2.41352754945700
C         0.55411603232245    4.02238257972709    0.27679406916059
H        -0.24146507944459    4.36635008907300   -0.37880345384769
H         1.40592984913412    4.69867192986587    0.19783036641805
H         0.22212862340331    4.04278202481492    1.31259317160972
N         4.19880334305092    1.32517495469247    3.93185894708367
N         4.15692686193992   -0.02471378248716    3.96539149067306
N         3.05052864169041    0.14642490464475    1.99309465004009
N         1.82531602545639    0.68946611573369    0.16578870438163
N         1.57020544783663    1.86007087183424    0.78365330086280
Cl        1.03504437492680    1.49542897137586    4.15034850916807
Cl        3.46554111430669    4.11659894786935    2.17348790375772
Zn        2.59527336733955    2.13982035617920    2.68347463181757

