50
CSD_code = UWIGIR | q = 0 | S = 0 | Stoichiometry = C19H21HgN7S2 | MND = 5
C         3.41958762145279    3.96150889949265    5.99872487997182
C         3.26025245550885    3.63147720423660    4.63485979594317
C         3.90654015510989    2.42508816238609    4.47045725974012
C         5.15732205579369    0.97044207112944    6.08029463749101
C         5.14554444074018   -0.24708405196768    5.40398010159412
H         4.49074244383458   -0.42218226804320    4.57090487357696
C         5.99563857482543   -1.24240917709506    5.85171707837555
H         6.03600942574486   -2.18715522215047    5.33115212696033
C         6.79430251898547   -1.03539074749522    6.96216482504461
H         7.48815478106375   -1.78966626626566    7.28264388725889
C         6.67717286364109    0.18135748036112    7.62996407313356
C         7.90954965351454   -0.32134521314735    9.75137873870971
C         8.45662108809811    0.50136893755658   10.71332693716866
C         8.19898578060354    1.81760951415786   10.27410054340600
C         2.93028791554801    5.16494645268919    6.71509789239003
H         3.22866683483727    5.11773123447911    7.76441744902353
H         1.84432918953051    5.22819211025995    6.65775617439971
H         3.34926911571965    6.06378229801055    6.26433159624022
C         2.56360482696140    4.45916027496087    3.61219788114976
H         2.27874884087811    3.85878064093132    2.75251454554952
H         3.21547401010767    5.26446016602868    3.27293783910880
H         1.66861953454683    4.90750580752488    4.03871084658631
C         4.16767840116634    1.69194600121057    3.20734207080868
H         3.48695707379160    0.85071462106103    3.07380832461689
H         5.19553840214613    1.33619494911946    3.19123133295650
H         4.02812596361050    2.37402051012279    2.37271940051161
C         7.78793441068247   -1.79905132693838    9.79140384422825
H         6.78793828675985   -2.09915253685660    9.48569499011350
H         7.95164234673288   -2.13145330864866   10.81330375946164
H         8.52701158559903   -2.28778052980348    9.15599488375523
C         9.14212126595098    0.09520162232763   11.97184058926310
H         9.67930678536258    0.93841431743557   12.39693549444808
H         9.84746606240726   -0.71218976458811   11.78438488139720
H         8.41224309992822   -0.25087609501200   12.70393032279310
C         8.55730285239082    3.09959879944801   10.93091646739343
H         9.63751974487096    3.18339091803924   11.04325859057358
H         8.10240359135069    3.15472119523953   11.91914279455912
H         8.19884490812945    3.93532596865206   10.32614512080615
C         4.60019107141210    1.24475778341255   10.11015337512421
C         7.05233570640983    3.79561159650543    5.77865944922485
N         4.10761417623478    3.01734002930413    6.61401833984432
N         4.39048990512739    2.06419274841935    5.69863752963960
N         5.89150917910087    1.15243231863358    7.17392028126364
N         7.38377949980437    0.49128495286007    8.78531715901983
N         7.54709051991393    1.78911406133382    9.12538613931293
N         4.73280440504205    0.10849045079421    9.96654577300082
N         7.02413626033271    3.06695862295330    4.88575514906614
S         4.41020728684298    2.86441137995017   10.36323094391424
S         7.08545403933424    4.87625319478521    7.02564018988629
Hg        5.77872904251685    3.29934921218280    8.37494882017381

