75
CSD_code = UWIJAM | q = 0 | S = 0 | Stoichiometry = C30H30N8NiO2S4 | MND = 6
Ni       -0.93205841553164   13.57276468831326    6.64295269058707
C         1.37278469430573   12.07325080109292    5.83523842444120
H         0.81099950238682   11.99310844689490    4.91615299910263
N         0.81040633658801   12.75254159535380    6.83332154946441
O        -0.08513444678102   15.49666415943699    7.85580323468013
H         0.17625977369163   16.12917932254784    7.17578325898368
S         0.16238878397463   14.30705100967388    2.44015905744707
C         2.62500498578470   11.49553893267704    5.93128048950843
H         3.03190908239002   10.95385978052130    5.09157656798593
N         7.15041836569352    9.63607310304758    7.46182334999479
S         4.50386695531554    9.27620982736339    7.85969710157224
C         3.35202233832066   11.62491425032178    7.10950236168449
N         6.60653231170926    7.61083945326716    8.24173987775119
H         6.02188153344830    6.86214537593456    8.57164251928467
C         2.75525906451749   12.33246912975376    8.14681727816474
H         3.26544797817779   12.46055830621491    9.08882793570857
N        -0.34203681793978   14.48155920799680    5.14952339442791
C         1.49512956885756   12.87341932399111    7.96925947950212
H         1.02093761539432   13.41959576158699    8.77148969554068
C         4.69704930410348   11.00641028394880    7.26233021736285
H         5.30914840870294   11.52012356798158    8.00175249167380
H         5.23652741586776   10.94212598589783    6.31883144102043
C         6.18780446556964    8.84845148990890    7.84182007938490
C         8.29891663801162    8.89463076902307    7.60959660895021
C         7.97564248890813    7.60855413733521    8.10291521651826
C         8.94487224835300    6.65243693704883    8.34616237761503
H         8.68986392181486    5.67342434579831    8.72279902362095
C        10.25405204631743    7.00956332833839    8.08463904703213
H        11.04165252960875    6.29253049636408    8.26106555640838
C        10.58352807467661    8.27480096597954    7.59776678676710
H        11.62120046555242    8.50600785970725    7.40870390264475
C         9.62132128564641    9.23316613168648    7.35304782944430
H         9.87316903827967   10.21126662682378    6.97673598032078
C        -0.13849840952290   14.36746825222105    3.99419019445049
C        -0.18877429725687   16.14826796800327    9.10327912848946
H         0.78267981868724   16.53804502388015    9.42623392005194
H        -0.52975641927817   15.40866306960746    9.82710368917909
H        -0.90816374662243   16.97329360569969    9.07201434280530
C        -3.23942467071779   15.06808147693073    7.45265478350484
H        -2.67944282251200   15.14430974197023    8.37316903462001
N        -2.67492909284451   14.39321947857193    6.45276696992330
O        -1.78299539230504   11.65128005508262    5.42892746318939
H        -2.04641064525908   11.01992491433686    6.10923140789926
S        -1.99243790569104   12.82849969763247   10.85273130971482
C        -4.49153315388236   15.64614772904101    7.35660683979294
H        -4.90002501209152   16.18428384918587    8.19781681592943
N        -9.01413704605812   17.51148725376495    5.82418594157964
S        -6.36740960536017   17.87120395439528    5.42734987143037
C        -5.21628519105868   15.52169168606640    6.17647152866065
N        -8.46980699074733   19.53709869649215    5.04557066110394
H        -7.88500368494996   20.28595329157497    4.71630017865555
C        -4.61744236536385   14.81845834106893    5.13738796252418
H        -5.12587494006521   14.69422752612151    4.19389372074043
N        -1.52197813392276   12.66411878982374    8.13662601178321
C        -3.35750629533167   14.27703252819160    5.31502478729693
H        -2.88161824466930   13.73437634857890    4.51139432217581
C        -6.56112789822804   16.14059057364117    6.02349146530707
H        -7.17293061693513   15.62754828117018    5.28334705168607
H        -7.10110236248615   16.20428613595258    6.96674013562335
C        -8.05132791215732   18.29922143538484    5.44491342862629
C       -10.16251615979791   18.25313920159603    5.67652528482960
C        -9.83896685789338   19.53946115929291    5.18402921667089
C       -10.80806082286292   20.49579871286780    4.94107794428464
H       -10.55292128517218   21.47501841849366    4.56506845604721
C       -12.11734581681658   20.13864231702522    5.20205264039188
H       -12.90483749897412   20.85584589933051    5.02583844689339
C       -12.44708244027636   18.87315704153464    5.68811407724916
H       -13.48482566068622   18.64193970872827    5.87676732263944
C       -11.48502270226219   17.91457375812399    5.93253195734821
H       -11.73703659931012   16.93627852278235    6.30822154852002
C        -1.70936511164236   12.77329425502177    9.29515831723768
C        -1.67918826526372   10.99819388544840    4.18224251167832
H        -2.65127835321301   10.61093686864185    3.85814542744147
H        -1.33490407519966   11.73610513529447    3.45823036826603
H        -0.96225285562197   10.17110000987688    4.21541568918180

