68
CSD_code = UWIKAN | q = 1 | S = 0 | Stoichiometry = C30H30N5O2Pt(1+) | MND = 4
C         9.34201454090148    2.14475442067310   27.89644592309600
C        10.21347618542370    2.51812616264218   23.26105646305815
C        11.17337620011765    2.64074586589028   25.45702873005208
C        13.33549388920974    2.72983850588399   24.95647377665231
H        14.38481212107941    2.80553249442245   25.15506350909063
C         7.21575019162103    2.66193695534858   25.71487055366381
C         8.91389083202866    2.09257724710367   21.32032698642972
H         8.84417572389287    1.85893022064472   20.26995969847401
C         7.74668038267650    2.22367567408819   22.06554163842483
H         6.78174387018961    2.07309290507302   21.61230304472933
C         5.51303092344240    2.68188722410292   24.24578758296266
H         5.01647984086572    2.66999458016217   23.29820961461612
C         5.00777720483389    2.76796210918144   25.49863074755249
H         3.99360567760823    2.85116312467496   25.83131684086515
C         5.48532943330106    1.80522872823287   28.53835669874226
C         7.88173561870964    2.53141499724578   23.41288011080437
C         5.98422056769353    2.87125206960997   27.79042407208977
C        13.49351731097400    1.92310462672068   29.39079907401645
H        13.93911437426497    1.10439825091505   29.93524146696585
C        12.66417594524995    2.84282738946925   27.35524742093008
C        13.24169101729870    1.77243946000115   28.03655692733763
C        12.67154532439868    2.64718394645144   23.77974433508229
H        13.04094282967314    2.63116292221235   22.77579412525525
C         6.44089164847613    4.04494433300779   28.38970947821186
C        11.61172800174240    5.12856210312258   27.26441903174807
H        12.18436840802729    5.43817009393550   26.39074397981930
H        11.47305366668963    5.98742256795232   27.91313490641241
H        10.62030520746194    4.78945357523557   26.93098923916212
C        13.52754346888555    0.48183185723770   27.33320421537901
H        13.92850622603018   -0.24749037282076   28.03030920371964
H        14.24595015518640    0.61403510086448   26.52525624697468
H        12.60650189324980    0.08075102352079   26.90980819152063
C         5.09214312818704    0.52173497494090   27.87476316090276
H         5.93632556021846    0.12124864499309   27.31305980312579
H         4.25967815806193    0.66385264430523   27.18650758897531
H         4.79769530384195   -0.21248635709747   28.61842287969428
C         5.41109706352205    1.95428089404252   29.91346586992716
H         5.02900404367672    1.13968888604525   30.50995804198356
C         6.34470052148970    4.15075178383704   29.76849124844661
H         6.68825808814240    5.05470159494970   30.24792691085629
C        12.57408870852215    4.13017144138926   29.35853978223380
H        12.30479379077882    5.03833312575616   29.87598520647036
C        10.16926887545345    2.20916001074509   21.90798238715216
H        11.06553892518967    2.04693242437468   21.33387241117443
C         7.04022360322069    5.14653562663754   27.57006491326194
H         6.36244195550935    5.46535987098705   26.77885258255158
H         7.97662343981087    4.79950794971528   27.11012025249872
H         7.27030708069242    6.00129791195608   28.19789558090933
C        13.17558140230184    3.09588605338365   30.06337002325801
C        12.30099887703662    4.02313052949129   28.00430222308237
C        13.48354435099632    3.23923292095163   31.51965226870464
H        13.33680697396468    2.29683108617949   32.04163227492812
H        12.86080862468887    4.00238408779913   31.97865930269509
H        14.52587365520690    3.53144093526942   31.64793649242570
C         5.82670042625302    3.12146569775865   30.54230625701290
C         5.71462232656161    3.25356060328836   32.02768963889280
H         6.25326448598390    4.12609577458660   32.38642398996911
H         6.10569365846548    2.36682844284561   32.52200666645179
H         4.66807508552524    3.35527790718212   32.31307211206220
N         9.08773275699222    2.73401412655935   23.93519555121316
N        11.33350100732119    2.59983933164635   24.08941109395097
N        12.39926831545815    2.72365977126607   25.96049612623101
N         6.87949321148760    2.62395776102752   24.37947835146048
N         6.06602386935013    2.75344617974941   26.37297336182507
Pt        9.22043416198312    2.63910908705419   25.98347499707815
O         9.40691486781043    3.15242044119366   28.78668920473935
H         9.46340285450627    2.80048192568758   29.69381269518670
O         9.35814216056890    0.99205574668667   28.26517491476278

