55
CSD_code = UWILET | q = 0 | S = 0 | Stoichiometry = C28H22ClN3Pt | MND = 4
Pt        2.60776333628719    2.72483044792716    8.92934230468880
Cl        3.06137980541243    3.66997690934168    6.82402916403740
N         3.21961096340976    4.26882776908597   10.01081786611893
N         0.61495769594351   -0.73268225604183   12.67538709794331
N         1.98314435261658    1.17443537151255    7.94257504461782
C         3.78992614594566    5.35993554777089    9.50479690680546
H         3.92249486303192    5.37611904073163    8.42992309282782
C         4.19141305166027    6.42575064470604   10.28866212276329
H         4.64901242515355    7.28828427351524    9.83236609695676
C         3.99125763794123    6.35674316858266   11.66075070759136
H         4.29149757659275    7.17093510271386   12.30324913327141
C         3.40222161312433    5.22647641849490   12.19103878314132
H         3.23781915861054    5.14530587902010   13.25326536820332
C         3.01828023939693    4.18043706075055   11.35121724986242
C         2.40515871961652    2.93750445945248   11.78453551389049
C         2.06565834978036    2.62719270122379   13.10164068884428
H         2.23898220102107    3.33714790849948   13.89697597096337
C         1.47632410873929    1.41969226926516   13.40474905019871
H         1.19020023959841    1.19258021836889   14.42112812601303
C         1.23144123682696    0.48729439204318   12.39339750368453
C         1.59262562190542    0.79389237577267   11.07933725149077
H         1.41467825404084    0.04278760238942   10.32013505077240
C         2.16144714243896    2.01023103527093   10.74485026765238
C         0.86594851479089   -1.39726463785409   13.88125588318692
C         2.13720989704258   -1.37145070619844   14.45387962203625
H         2.93304201791102   -0.83863287739666   13.95449594486680
C         2.37593911822968   -2.02801458073621   15.64544149946204
H         3.36558219489343   -2.00302247019241   16.07744176650440
C         1.36014956157168   -2.72489458669776   16.27927464294919
H         1.55186506153665   -3.23954164662862   17.20853025073584
C         0.09690979075153   -2.75764594569181   15.71165503502176
H        -0.70221151496708   -3.29465070847628   16.20120862279056
C        -0.15409679300802   -2.09777796751922   14.52444230269087
H        -1.14192627674675   -2.11678930794519   14.08759123609825
C        -0.23161225902136   -1.31294021540892   11.72309194503407
C        -0.21962679135447   -2.69042418392425   11.50694800068620
H         0.44569311805909   -3.31311521164350   12.08693201270307
C        -1.04640308506421   -3.25259378504136   10.55349030341186
H        -1.02386859629986   -4.32054860977528   10.39353075013436
C        -1.89096788484028   -2.45625743896915    9.79788097090844
H        -2.53205937443765   -2.89978918343572    9.05110706947038
C        -1.91099057696133   -1.08751781214277   10.01252491724508
H        -2.57745650617536   -0.45942006496683    9.43941832146469
C        -1.09473095308984   -0.51718145026742   10.96872782139122
H        -1.11776426343281    0.54861387859431   11.14098065966815
C         0.67910330199097    0.90918743631954    7.81887828722913
H         0.00081819363421    1.56714779115323    8.35141894306607
C         0.20387898160603   -0.14258838528834    7.05961342387648
H        -0.85743323277789   -0.31871104631689    6.98921868504073
C         1.10889433899439   -0.96012422369188    6.39901278696908
H         0.76941693741147   -1.79067500020538    5.79982165598464
C         2.46128527461857   -0.67906689953334    6.52499895406403
H         3.20245967669788   -1.28154584623896    6.02425906638431
C         2.85653990729034    0.39363065191151    7.30148342929988
H         3.90461748205459    0.65160669380989    7.41247482728133

