126
CSD_code = UWIPOG | q = 0 | S = 0 | Stoichiometry = C38H74N2NiO7S2Si2 | MND = 5
Ni       16.20583456316453    8.85153661951049    5.73219920359389
Si       16.47972187873468    5.49822935901986    4.10631774279464
Si       15.50661876780936   11.49275194305745    4.26924605693820
S        17.53177992308834    7.08504689036360    4.95693635163937
S        15.34438000942750   11.02052122423732    6.29515270371154
O        15.32742813872239    6.18490164460736    3.15067400366150
O        17.46725387258907    4.49647266871638    3.28752339906303
O        15.65079071100850    4.51753126583244    5.11701142549921
O        16.73932664368059   10.50760273718049    3.81543892331326
O        14.26409300505490   10.98140234420574    3.31688704549018
O        15.68455122367512   13.07113788560510    3.91690290915106
N        14.76992714213417    7.86955962063986    7.35707487760120
N        17.58481854442120    9.23215338865451    6.82334662272958
C        14.24262727985856    5.60701430577417    2.43468826167277
C        13.78364290613191    6.65681457132973    1.41734477417354
H        13.42187981071482    7.54545482847040    1.92844054864488
H        12.98150071902903    6.25522058608405    0.80357923326075
H        14.61395142344111    6.94020944751646    0.77498155988222
C        13.11610877385830    5.29016774838123    3.41831860029005
H        12.81508300725216    6.19277340594838    3.94548202067617
H        13.47957307122187    4.56855105483285    4.14375382343478
H        12.25746313125337    4.87846297780785    2.89403058011711
C        14.68743964083739    4.33576855448498    1.71686333002398
H        15.06240081039459    3.61914307387716    2.44139491199469
H        15.48660128546508    4.56489489762806    1.01628507170660
H        13.85321063944093    3.89839477679600    1.17358616602954
C        18.63381304935374    4.68445617477217    2.51232086587260
C        18.50662046267810    5.92040086739626    1.62437387806024
H        18.44650209279624    6.80610965625072    2.24873849267688
H        17.60265940437876    5.85550216715385    1.02384648931582
H        19.36725452572450    6.00246623004378    0.96589594583598
C        19.83414561649758    4.83666332641439    3.44998443062582
H        19.67383262530236    5.69407292446162    4.09936319541475
H        20.74559454345557    4.98234177532988    2.87703308372387
H        19.94078133639311    3.94702760383940    4.06675159328421
C        18.78522448406372    3.42464562003732    1.65191013733680
H        17.92465887362166    3.31453162335744    0.99656807638689
H        18.84690618235312    2.54471577003211    2.28775397620456
H        19.68651569616194    3.48827798767240    1.04834552222970
C        16.12796550399978    3.56132858450104    6.04686026105510
C        16.54112575357151    2.29423603849917    5.29481432859269
H        15.67897568348140    1.85917158469322    4.79376981575963
H        16.95787091444584    1.56381111734043    5.98319448287664
H        17.28219940527048    2.55248475925731    4.54518908669398
C        14.96936795570030    3.25004813088835    7.00093883018839
H        14.09952026121835    2.92113942354391    6.43705181433613
H        14.70361892963304    4.13644513813534    7.57070604387121
H        15.25892684273860    2.45962686659046    7.68827711947326
C        17.31047163502665    4.12327971400638    6.83294417934972
H        17.03773731984311    5.08237357914998    7.26640061480796
H        18.15351659587236    4.28402635724196    6.16735352590138
H        17.60029925482222    3.43648649684659    7.62392633509717
C        17.33261110018577   10.30169033062861    2.53642858491116
C        17.35820895036343   11.59420814832077    1.72389836574264
H        16.34606296805019   11.95075879656669    1.55453881643854
H        17.84200641168256   11.41981554178926    0.76547466756881
H        17.90657543790129   12.36538624553772    2.25942693286049
C        18.75792700117671    9.80223883290723    2.78869653101552
H        18.72512722005888    8.96815456515002    3.48786100957020
H        19.36832724772585   10.59537930953533    3.21629847507205
H        19.21278436842189    9.47648942130602    1.85679381705951
C        16.52455239326533    9.23634838706072    1.79352093405764
H        15.50476057445059    9.58694771187017    1.65457290513979
H        16.51256460492428    8.31777254730055    2.37483117961663
H        16.96758168439820    9.03293142604732    0.82139697102428
C        12.97644854576534   11.53537467263978    3.11375338807726
C        12.10504688116133   10.40390706142544    2.55645085450979
H        12.01411488578598    9.60895004412548    3.29350877669534
H        12.55325579293333    9.99752447934140    1.65198319831094
H        11.11320316191890   10.77763722397681    2.31779276681610
C        13.08500160293215   12.67844502057964    2.10318864739361
H        13.79947835382873   13.40772873582383    2.47362957905105
H        12.11841730209873   13.15456107942057    1.96219641216756
H        13.43846352574187   12.30052092204725    1.14614550522543
C        12.39616458119147   12.04294188128550    4.43136217223819
H        12.42915766593656   11.25312503289675    5.17783979269251
H        11.36814755066417   12.36702125349100    4.29262831759149
H        12.99054753972050   12.87469354063434    4.79702576795361
C        16.30231592226620   14.12702672631074    4.62605979527709
C        16.53359858582566   15.24706107789117    3.60609995892307
H        15.58755247655216   15.54042384944479    3.15761001537626
H        17.19516682166673   14.90185661698105    2.81524122546472
H        16.97823862192159   16.11201526713424    4.09045283730521
C        15.36052337623356   14.59857226857548    5.73596228029276
H        15.15492015812443   13.76741569316976    6.40656284905821
H        14.42251827842539   14.94474167617844    5.30779386497613
H        15.81404095955943   15.41098313967388    6.29670905396835
C        17.63052204869018   13.67607790644193    5.23309741384032
H        17.44132213448878   12.91617261827047    5.98695867820704
H        18.13771911296492   14.52094992234556    5.69191183993902
H        18.26839919298109   13.25463429398568    4.45976701340829
C        13.99910679876890    6.85163050671767    6.98208376335749
H        14.41105059763051    6.19643511839161    6.22693903912865
C        12.73623687073376    6.61276414014576    7.51147495126407
C        12.26726071954545    7.48994529398966    8.48214194801070
H        11.28399457442663    7.34454724578360    8.91054929563937
C        13.06145025946719    8.54857061393531    8.89527281540137
C        14.31109676966612    8.68548047305324    8.30038902366443
H        14.95818760203327    9.50584051856176    8.57962593704795
C        11.89935945491347    5.45646553705654    7.05881909361210
H        10.94376316473278    5.80891658714330    6.67253707054207
H        11.69397303202911    4.78765402592605    7.89436204099420
H        12.40623009769976    4.89717148698512    6.27919011028964
C        12.61303522340397    9.51799156368433    9.94298854065457
H        12.86100555761848   10.53249228558443    9.64018063759115
H        13.12169578951767    9.31496403301158   10.88532841108332
H        11.54094393069296    9.44468009772380   10.10885686957284
C        17.75150497215800    8.63776178436544    8.00323794168170
H        16.99359750393038    7.92678251580415    8.30335819251939
C        18.84258001995338    8.88945184949656    8.82441357418226
C        19.79925696268931    9.79336620165827    8.38207554106110
H        20.66350515287324   10.01352919869860    8.99254760005623
C        19.64081994483084   10.40572033142858    7.14653931266484
C        18.51126023720341   10.09031868906189    6.40302923541841
H        18.34522907862343   10.54821774513125    5.43756724401498
C        18.95756297888157    8.20229344115375   10.14907110920620
H        19.96430984831772    8.29345671609131   10.54784222288281
H        18.70758487530922    7.14856148421189   10.05350404341554
H        18.26372282652784    8.64844775030244   10.86067526948062
C        20.64016293202767   11.38026958880005    6.60733961977828
H        21.47344684443952   11.50352380892433    7.29332602744005
H        20.17116841975947   12.34897767008982    6.44748943681608
H        21.02332582081547   11.03164199675760    5.65074402137177
O        14.63702920094696    8.42521386169319    4.51931519098677
H        14.47640559416632    9.18781515823983    3.94007000451841
H        14.86774943092832    7.65973007427945    3.95137139785139

