41
CSD_code = UWIQEX | q = 0 | S = 0 | Stoichiometry = C13H16N6O5Zn | MND = 5
C         6.90117043785972    9.68269850006402    4.24826438727823
C         4.44496729123653    9.92892294238142    4.09800025116530
C         4.65530793509678   10.16343238523408    2.69425256990412
H         3.81031667966326   10.35467878810923    2.05541444573376
C         5.91096805585741   10.13082072598821    2.18622983416513
C         6.18270440301936   10.33031824904479    0.69931994290266
C         9.00890487606728    7.50537075804510    0.13607302873085
H         8.29078441306996    7.90891931644000   -0.54941981839511
C        10.41523644583604    6.15668791225993    1.10136438336721
H        10.98846005848560    5.26709687990120    1.26231935378333
C        10.33500925469253    7.31774862386272    1.80922150879689
H        10.83606788491204    7.61271818652203    2.70767958414050
C         9.31403622402480    5.30491542011823   -0.97161120287336
H        10.23251576144429    5.07319933169951   -1.51396955128587
H         8.57389162837935    5.68845593518984   -1.67066513974484
H         8.93428889888622    4.38719593426302   -0.51937312729750
N         7.02710111024671    9.90792924673025    2.92915813397256
N         5.64129038392548    9.69390812228107    4.78310233960940
H         5.57090664390577    9.51532943538663    5.77825115536983
N         9.45400399284475    8.15042015630857    1.19280770174120
N         9.56553625310196    6.29153808596889    0.04059624114095
O         7.87925928521896    9.47751754234032    4.98297328961984
O         3.39112248312994    9.91413971370359    4.70212094792242
O         7.32354676423311    9.91163477342201    0.30094684986190
O         5.34347795991507   10.87019300014016   -0.00279559692026
O         9.95231125977015    9.92161129177178    3.50931340879578
Zn        8.60226957186836    9.88019520393213    1.77462421736149
H         9.24499356622741    9.65235615176427    4.17545951445930
H        10.23711927269746   10.78849594511295    3.80686741630992
C         8.59265859248244   12.53406363518530    0.49289980389618
H         7.53464915778104   12.43114653712086    0.35679584821422
C        10.60870980318491   13.33448957081287    0.34592029823328
H        11.39438541853541   14.00521603777084    0.06567191512117
C        10.62473739858149   12.17653788174515    1.06389935247079
H        11.45033314348757   11.66492951582272    1.51523795837766
C         8.80719680625768   14.64613939002651   -0.78517323548292
H         9.31669749666708   14.69211413678431   -1.74880793689169
H         7.74116012520916   14.50750950307979   -0.95294973219075
H         8.96772938454290   15.58842159190647   -0.25797915893782
N         9.35763046140880   11.68737500519330    1.14902564219775
N         9.30874341626376   13.54630863657517   -0.01046682465282

