98
CSD_code = UWIQUO | q = 0 | S = 0 | Stoichiometry = C37H56N2OsP2 | MND = 7
Os        7.12248844437025    8.35139668804586    4.32103650070828
H         7.43934759176781    6.89692942092159    4.79774717797540
H         7.94715834920071    8.30923711735069    5.65379255775650
P         9.18773897626721    8.06653061749310    3.09952406441971
P         5.13831634716395    8.37585675771453    5.67958421195554
N         6.44782840772296   10.82557476703525    2.78334134043587
N         5.73626799458633    9.01949341691520    1.76047481480259
C         6.37133963422372    9.47633968533486    2.86583384226654
C         5.84628789326536   11.25150728396804    1.61805004720267
C         5.65242464967431   12.50174377722650    1.05174617738193
H         6.00171505539961   13.40300450521437    1.52654249456070
C         4.99154238576919   12.57444305440224   -0.16111168588334
H         4.83102806921375   13.54013851031560   -0.61598347283816
C         4.53180706115513   11.43178929351418   -0.80248689590557
H         4.01768536767148   11.52331446921636   -1.74723659167257
C         4.72129475175179   10.17529398973578   -0.25632190994480
H         4.35617733249961    9.30489596814117   -0.77485523662427
C         5.38290928006206   10.08209600770957    0.95788032702750
C         7.05681670619614   11.41522714848060    3.90155339909362
C         7.49472301542816   10.45554726367055    4.84263125886005
C         8.07900324906323   11.00043432912545    5.98883899287962
H         8.42641764709130   10.34873504396174    6.77969258902318
C         8.23103713322509   12.36629149047035    6.18135390911439
H         8.69218289731223   12.72824997530133    7.08997143049377
C         7.79623806540469   13.26210640799297    5.22411643129999
H         7.91295568452016   14.32643025606125    5.36786847736684
C         7.19800396734048   12.78185286760105    4.07288257225721
H         6.84555036382776   13.47532353391822    3.32669216274653
C         5.55539835983054    7.62680002977321    1.76315758301153
C         6.06697561570580    7.02163031846776    2.93468279170280
C         5.83968743104272    5.64779888617070    3.02312232136073
H         6.17561876633930    5.10207208762573    3.89384762388641
C         5.19505673304681    4.92792582147895    2.02728717112304
H         5.04681056376684    3.86354341694367    2.14873501454551
C         4.75205650731070    5.55803598449737    0.88055665992130
H         4.26514681038389    4.99935173581097    0.09443269867621
C         4.92891004324194    6.92402910373530    0.74782632712190
H         4.57596484724784    7.42427645766826   -0.13967931414992
C         9.12748113250187    6.51902834775365    2.00788339410814
H         8.09782800169858    6.54607764609055    1.62639161543897
C         9.24691854313630    5.25736630555222    2.86158646626285
H         8.84964616936642    4.40395389038289    2.31411236594087
H         8.67404573161388    5.36605746398292    3.77987663274200
H        10.28222826130734    5.04400972993440    3.11624778745705
C        10.05327131896185    6.41671043376438    0.79522900072646
H        11.10403051329878    6.44950627387332    1.06637143461218
H         9.86107863700916    7.19450312368954    0.06254952038154
H         9.86735618450618    5.45779302464407    0.31103070417558
C        10.67598389644725    7.73500727948369    4.20629708136304
H        10.34041063783124    6.84318254098033    4.75216201546011
C        10.90150242982339    8.83760124209905    5.24122796960048
H        11.39741941280334    8.42413493382290    6.11820340695659
H         9.95643839437513    9.27120029558681    5.55094575343051
H        11.53070728232306    9.63046756684265    4.84769756677063
C        12.00174873612479    7.41939529118259    3.51829442915582
H        12.33117449080119    8.24186480128177    2.88769200260716
H        11.95280248136988    6.51466228214842    2.92084664258866
H        12.76233127487458    7.26592610921668    4.28401420418680
C         9.85202288045047    9.30851022353434    1.85532768158415
H        10.73986479371498    8.83606464070123    1.42243156626735
C         8.84166445235129    9.56779820656603    0.73549232561764
H         8.17560297701083   10.38116027720827    1.00752319222725
H         8.23747326144762    8.68934227370899    0.51462951903482
H         9.35881014785162    9.86522898701692   -0.17691029851188
C        10.26062699152289   10.63093608607640    2.49908413997244
H        10.36029254861221   11.39885440342323    1.73207981987975
H        11.21528248608209   10.54784524291327    3.00984109532622
H         9.51460066869095   10.96023995704269    3.21999939843202
C         4.51161505048270    6.67392935573065    6.20057476197332
H         4.28448646352868    6.23595538861903    5.21856909791661
C         3.25118443433926    6.62647566219787    7.06286686374047
H         2.92706082840425    5.58902483859465    7.14778820916745
H         2.42596070087137    7.19501384458518    6.64467143720889
H         3.45456097279403    6.98781218948060    8.06776293708466
C         5.57658074828629    5.78983282154341    6.84859424507891
H         5.66866447659703    5.99265866254872    7.91131450724766
H         6.54602254482003    5.94515650794713    6.38221059748963
H         5.30084928165051    4.74239475473939    6.73104457392454
C         3.52549808396682    9.08083201806861    5.01431383122900
H         2.84593957409839    9.10332453385634    5.87142155646636
C         2.88468875796852    8.23145172562738    3.92024285625804
H         2.03850887682114    8.77022948416397    3.49336808379171
H         2.51779819093169    7.28281264398088    4.30365495902325
H         3.59065392128752    8.01941921128646    3.12187914395257
C         3.71366756052986   10.51545279110761    4.51871235875419
H         4.00716081109221   10.52182689150654    3.47284337076554
H         4.47302887794604   11.04641814372945    5.09145664201784
H         2.77708970206575   11.06791638994085    4.59474072294321
C         5.31659175383564    9.42464098456916    7.23960247463384
H         5.87892024945764   10.29158638674638    6.86798346325589
C         4.05850456778720    9.95264711970576    7.92702203078978
H         3.39026200563365    9.15397863481543    8.23556920693531
H         3.51025754426665   10.64862014223215    7.29834770211553
H         4.36392009560613   10.49355378515843    8.82291806099302
C         6.20579270753821    8.71285700761183    8.25713145115367
H         6.62975931367784    9.43665890528894    8.95210691498550
H         7.02259616313640    8.19970461976579    7.75271080736376
H         5.63411900356838    7.99043818534776    8.83429083397231

