105
CSD_code = UWIQOI | q = 1 | S = 0 | Stoichiometry = C57H41N6Os(1+) | MND = 4
Os       16.19660231920966   12.23043776259557    5.31287701461799
N        13.49184399882590   12.05023025458372    4.29401633616915
N        13.82377445347331   10.24953736550156    5.50362654137939
N        17.65058256972402    9.68710128678805    4.87725177782650
N        16.32076900210991    9.94305629374601    3.17148167997131
N        16.94065582403617   14.60705030328898    6.88098329501227
N        14.76330214587767   14.56045635809105    6.85734137157770
C        14.38053698357971   11.43935824325065    5.13558461700962
C        13.95382809725535   13.21542925889008    3.66591822170056
C        15.31559943660051   13.47365764077203    3.92317343632609
C        15.86901897287664   14.60293698278885    3.33055751301532
H        16.90857558865078   14.86338942299894    3.49427917868443
C        15.11493526038936   15.43038634193184    2.51211201469105
H        15.57285284014773   16.29776829271546    2.06042127021902
C        13.77816329034740   15.15685597450326    2.28524799942364
H        13.18975894448031   15.81030316002503    1.66014392124719
C        13.18898108091175   14.04703015683502    2.86560483182991
H        12.14360552882548   13.85369768058748    2.70066535234640
C        12.36438160074338   11.26994823221736    4.13886580096168
C        11.18208609506992   11.40170465792866    3.42478131015657
H        10.97749697132036   12.25881974576799    2.80853557014591
C        10.25047951453819   10.38283731274202    3.51741808233001
H         9.32515167301242   10.46855882804477    2.96948629402579
C        10.47097651608319    9.25342795093067    4.29882855741733
H         9.71516648427457    8.48574295150367    4.34879941220241
C        11.64615347630978    9.10008719034865    5.01082562799024
H        11.82877229109147    8.22892184291507    5.62046564290269
C        12.58333952426908   10.11392722857519    4.91170794500973
C        14.48295958321450    9.22505491150100    6.21838743859340
C        14.70836231037301    7.99848972904722    5.60220507916654
H        14.35198563962190    7.83069052699518    4.59714301012976
C        15.39370909237159    7.00386622911900    6.27522305469429
H        15.57302062700689    6.05759357430748    5.78865690630566
C        15.85382071184460    7.22472490433054    7.56310408685960
H        16.39274185955750    6.44906728808697    8.08419316165659
C        15.60786112216538    8.43610551207110    8.18679656666611
H        15.94795207786299    8.60282343562253    9.19745319423606
C        14.91861818698358    9.43473143981235    7.52084806683226
H        14.69869153148522   10.37093609570815    8.01145038979696
C        16.80334799238651   10.57935754101080    4.26790762959902
C        18.39807532061331    9.99174097681118    6.02605175614412
C        17.82405961747069   10.76443093527925    7.03446841251091
H        16.76355758533951   11.03307112287162    6.98506971564715
C        18.55624029685556   11.07903579557103    8.16659378993002
H        18.10149097268875   11.66117204980059    8.95442867704369
C        19.86226070402094   10.64011609978594    8.29574543761766
H        20.42800389987855   10.88096794597597    9.18168664617524
C        20.43975959431443    9.89069685037498    7.28375862909472
H        21.46200052925216    9.55795118790811    7.37466757646051
C        19.71825555861372    9.57037362895368    6.14883375486211
H        20.18229651349228    9.01539601565256    5.34840080528337
C        17.66939991447724    8.48636947644116    4.19029704599916
C        18.27812841161643    7.26593348088977    4.43865011383008
H        18.89104895966178    7.10500676064793    5.31067684525471
C        18.04802874786278    6.24864707758129    3.53097883781997
H        18.50727213738921    5.28625033938562    3.69333860339528
C        17.24055274737318    6.43524913808079    2.41112945972835
H        17.10020247926360    5.61795780944526    1.72159913262834
C        16.60588608990438    7.63936392189617    2.17187191893254
H        15.97201373695696    7.78444131253719    1.31172649388030
C        16.81689726430501    8.65680010946877    3.08899772137899
C        15.44570559915898   10.51878866321615    2.22144990732181
C        14.23683919783624    9.90166440017093    1.92718203280568
H        13.95494138260737    8.99074054798117    2.43399024141623
C        13.39004560255848   10.46784779754433    0.99180083288331
H        12.44763365732306    9.99100963116898    0.77047755041473
C        13.74945664193317   11.63905668240426    0.34632656251512
H        13.08748549699066   12.07527046674245   -0.38521374341698
C        14.96097781138862   12.24507624522873    0.63184916611671
H        15.24666604420456   13.15277975070464    0.12460819004757
C        15.81225887461299   11.68890646736332    1.56898007656623
H        16.76440671533831   12.14602430138083    1.78827209854968
C        15.86098730395525   13.84414096120506    6.51119980802732
C        18.26552201083108   14.16143657609594    6.74659220992105
C        18.62400415516958   13.40565072878515    5.62831326048119
H        17.91849025900646   13.27393234179159    4.79332002995883
C        19.92416179586417   12.94554571449896    5.49422509010135
H        20.20469271735319   12.38125208488340    4.61699779823777
C        20.86591297709228   13.22023698302920    6.47063659668830
H        21.87864253839235   12.86726566504478    6.35840079633185
C        20.50360320588859   13.95164803667799    7.59003200349692
H        21.23189888490816   14.15798807324829    8.35876284701032
C        19.20972667029980   14.41643401291179    7.73654885822527
H        18.92452113153244   14.95724928749208    8.62533334698949
C        16.52443395338003   15.81240363361633    7.42051124909033
C        17.20388963799757   16.93594729593276    7.86571178320845
H        18.27938617912064   17.00152045862543    7.83172263992908
C        16.44255091266042   17.98973406115706    8.33711031142894
H        16.93996774149182   18.87871253028432    8.69139111447745
C        15.05117976226499   17.93247207988246    8.36625031994744
H        14.49820736507463   18.77313323335897    8.75412871425364
C        14.36479133577446   16.82893588091452    7.89565897407837
H        13.28751918424823   16.78577353270040    7.90398897161644
C        15.12183106108663   15.77732805806141    7.40505844344715
C        13.42804452907993   14.13750321154175    6.67992814156171
C        12.54497172167557   14.91108485474291    5.93897577777172
H        12.88714240532322   15.82829425078640    5.48484949280664
C        11.24041548752002   14.48240850187547    5.77132091413801
H        10.55326515232984   15.08216968982343    5.19490135472778
C        10.81690394145719   13.29019856370411    6.33485060977577
H         9.80013514256357   12.95740279657763    6.19602902142992
C        11.69673877733512   12.52643335670875    7.08321118265630
H        11.36415640261555   11.60364760655357    7.53370579827469
C        13.00122946296199   12.95050485955011    7.26156665474649
H        13.68996686936155   12.38297418025514    7.86850239556346

