101
CSD_code = UWIXOO | q = 0 | S = 0 | Stoichiometry = C36H52N6NiO4S2 | MND = 6
Ni       -0.00377276145464    6.71546570937607    6.91948610634933
S        -4.31839138151062    7.86273577586691    7.14072684959885
O         0.46223501341851    7.93268614276932    8.70298181755771
O         1.57922007329089    7.69416734179376   11.14468526489501
N         0.89512814230469    8.13325303798895    6.00166119821789
N         1.33504165443105    5.75119091210981    3.20489391083938
H         0.90255227356206    5.95046290944550    2.30560336856748
H         0.06985505747328    5.61205713322735    4.28055887681964
N        -1.58711110912821    7.66372075778988    6.78764867934238
C         2.47760741448259    8.72254477194231    7.76712850478161
C         1.74366053592331    8.26787516586426    8.87568415325937
C         2.37436014738556    8.18304714066949   10.13374060971701
C         3.69402235508577    8.56545976888498   10.27379959542762
H         4.18977261447665    8.49817694390516   11.22896877951767
C         4.40679216116953    9.03942574082131    9.17614033662665
H         5.43726441318001    9.33136829242878    9.30319720272673
C         3.80857517214136    9.12319707381663    7.94354956990655
H         4.37026306265456    9.46932911070000    7.08942301952234
C         2.15110714098867    7.54546365379284   12.41903296466680
H         3.00129843726032    6.85675015633036   12.40128735962680
H         1.36811950585043    7.12764676263522   13.05108779862406
H         2.47181786131177    8.50739724158960   12.83239600885314
C         1.90052324130922    8.78568950403853    6.44442879053169
H         2.42645950390750    9.47121535913581    5.77278282621795
C         0.46562363155620    8.40825355816822    4.63560644218586
H         0.12517550030898    9.45071072847651    4.59044857669295
H        -0.39431517743560    7.77678419045689    4.41321362832228
C         1.54088106104119    8.20533350101567    3.55722034193886
H         1.06310200749518    8.35672878513108    2.58584775417094
H         2.31797581040710    8.96554863986995    3.65736292769950
C         2.22745972642964    6.84121252262398    3.58092319101229
H         3.10151675919899    6.89874722665092    2.91398848391448
H         2.59385033980840    6.62819596293855    4.58759087395147
C         1.99845107922578    4.44547193044958    3.14549647105817
H         2.63295513769213    4.37425213132601    4.03508948727193
C         2.86294880456096    4.27247727607764    1.88988992517281
H         3.62574697027134    5.05278000970659    1.84717538490515
H         2.22652634054053    4.37260094597641    1.00432995463227
C         3.53937754751846    2.90573893091843    1.87635160194426
H         4.14693822081713    2.80347604586602    0.97431624017013
H         4.20334464350426    2.82719484941490    2.73952009810799
C         2.49709092862653    1.79484556459133    1.93564411028105
H         2.99061229259998    0.82115776352892    1.94920353844351
H         1.86663908242984    1.83790741326473    1.04372274108996
C         1.63157153509575    1.95814344179313    3.18012054485629
H         0.87275836578363    1.17341342888219    3.21446471579001
H         2.25716026148617    1.85884430459115    4.06947429082221
C         0.95537211319216    3.32641282946028    3.20067207446877
H         0.27981661687214    3.41829414032707    2.34630815940001
H         0.36833553246252    3.41989221056451    4.11382392598423
C        -2.75035375538730    7.71107945906314    6.94890090372058
S         4.30772934349902    5.54079547973148    6.69255928112037
O        -0.46649395329776    5.49693344078115    5.13654290627908
O        -1.57790447736291    5.72937065795618    2.69220573507442
N        -0.90281773830338    5.29715894161179    7.83680489898551
N        -1.33425650605797    7.67894735680641   10.63905443747811
H        -0.90207093716983    7.47729831923966   11.53794535522693
H        -0.07203354374930    7.81650914410350    9.56012776075096
N         1.57964793047677    5.76753880449802    7.05303843868487
C        -2.48261208656515    4.70552401837473    6.06951036611611
C        -1.74695212296286    5.15924353753667    4.96168253124357
C        -2.37477330609089    5.24077016040784    3.70199171384727
C        -3.69337442785660    4.85571520169074    3.55943632424739
H        -4.18679087034703    4.91988677910158    2.60283069489873
C        -4.40799539058193    4.38303134155121    4.65646359438528
H        -5.43770807681002    4.08920388159891    4.52755146649453
C        -3.81266825458494    4.30281940310608    5.89070748778684
H        -4.37604534083865    3.95790694145500    6.74421102292517
C        -2.14799971670721    5.87920535593978    1.41718594432230
H        -3.00006752251872    6.56559022005071    1.43498191588673
H        -1.36504703468303    6.30048939596694    0.78737310741467
H        -2.46539361341592    4.91730479859772    1.00118405757094
C        -1.90763752863323    4.64431455560068    7.39328673958454
H        -2.43426381794721    3.95915374718864    8.06480743840457
C        -0.47336138959738    5.02176737584792    9.20283725671271
H        -0.13431986556032    3.97883782685116    9.24781703743815
H         0.38755632839980    5.65202850853237    9.42484864963209
C        -1.54757600867917    5.22589992730745   10.28193913242637
H        -1.06980201023671    5.07080948834169   11.25274820675692
H        -2.32711194847911    4.46837627780640   10.18038054412396
C        -2.23011210294073    6.59211426797376   10.26181376693541
H        -3.10345508445560    6.53549402535446   10.92973917534856
H        -2.59715830819041    6.80818501043259    9.25604261490461
C        -1.99339158765726    8.98670965487415   10.69970974988316
H        -2.62443477405045    9.06214603082577    9.80796607672706
C        -2.86189904263880    9.16012415489596   11.95252523917599
H        -3.62690792685448    8.38183667110644   11.99152830327243
H        -2.22894217541782    9.05724465323859   12.84022987665729
C        -3.53490951827827   10.52857795475364   11.96521370858843
H        -4.14562945130066   10.63127157414750   12.86505514413127
H        -4.19545122842186   10.60977781541431   11.09965981109878
C        -2.48975396080446   11.63705731917757   11.91123278777826
H        -2.98096325893461   12.61189582638408   11.89631224630335
H        -1.86327465550886   11.59184508881273   12.80583022922692
C        -1.61918028986461   11.47279973500377   10.67040087019548
H        -0.85811308632019   12.25552095242119   10.64032036459611
H        -2.24052105964251   11.57481603919481    9.77837218344960
C        -0.94664899697104   10.10268208808346   10.65124238435360
H        -0.27568125034845   10.00771242205499   11.50887526942797
H        -0.35514705213813   10.00901962936043    9.74102388076418
C         2.74195679176261    5.70781400085670    6.89025229116441

