67
CSD_code = UWIXAA | q = 0 | S = 0 | Stoichiometry = C24H33N5P2PtS2 | MND = 4
Pt        2.55611860701192    4.87885511137792    7.92564256136656
S         2.39775285065943    2.68102737718812    9.19079711380137
S         3.36503222803568    8.75005975236940    5.55206010334504
P         4.35916409878979    5.33951487070090    9.23263659348367
P         0.72594784387985    4.46459142621781    6.62897566668410
N         0.45783404104710    3.00355811936698   11.10724488035766
N        -0.44938825954936    3.95512722773184   11.41186709269125
N        -0.33557302031447    4.88491736047880   10.56449687482847
N         0.62001586171049    4.62819806276381    9.68445110115980
N         1.81565862218746    9.79303629356038    7.71223139847443
C         1.13370361782255    3.44394447867883   10.01013789186432
C         0.65201157171171    1.83643916962852   11.87125612674405
C         1.12150299449626    1.96913852781619   13.17997303933507
C         1.32440646396322    0.81646026073436   13.92287420823597
H         1.69144747880527    0.89874436480220   14.93530031988358
C         1.06579197402122   -0.42933097563355   13.37981880316292
H         1.23208412075086   -1.31836582387120   13.96963339901280
C         0.58891520394453   -0.53894522893508   12.08733158792742
H         0.37859722324652   -1.51251094862224   11.66993507701811
C         0.36682913658502    0.59067776446517   11.31204303507380
C         1.39674073057909    3.32431416929459   13.75516229046775
H         0.48134004092993    3.91442632941153   13.78145311067053
H         2.11990388391003    3.86380581558604   13.14297049511070
H         1.79160807860628    3.24023610204659   14.76375567649566
C        -0.16866478082114    0.47647627361753    9.91969750211165
H        -0.51636729405080   -0.53424982681950    9.72424130633042
H         0.61355298474485    0.71935368023966    9.19933628179952
H        -0.99741773292112    1.16782915035447    9.76737941996914
C         4.07033393982555    5.21329982797181   11.03613537126482
H         3.79178253327259    4.18891944512324   11.28101604683821
H         3.25966232391826    5.88431989833335   11.31898354831109
H         4.97402727247133    5.48286058569187   11.58219730781797
C         5.77008660246148    4.20624434858189    8.98419472832913
H         6.12407656819505    4.30420333427418    7.95913483079460
H         5.43622157690281    3.18174325480383    9.14348361641265
H         6.57749401162426    4.44379721976428    9.67641554311754
C         5.15880758320494    6.97929821751610    9.10524792835793
H         5.50969724041587    7.13111184748209    8.08656460231489
H         5.99957162368832    7.04139559747550    9.79524425518549
H         4.43380400453230    7.75673540499505    9.33925672119057
C         1.00514910290576    4.34086274840953    4.82363330746578
H         1.66576854818388    3.50092124860920    4.61516689802163
H         1.47903106918391    5.25460862787466    4.47121268457693
H         0.05828605837652    4.19527256666057    4.30496506748913
C        -0.52912458907644    5.78368239045427    6.73619650576682
H        -0.85199031025013    5.87903104244613    7.77094832215531
H        -1.38091584989224    5.54499421493041    6.10020476649355
H        -0.08455849081863    6.72581748363598    6.42087997840903
C        -0.27835540694062    2.96264008382529    6.92321553381767
H         0.35381973368967    2.07797734135961    6.86310487719523
H        -1.07083331436664    2.89778335312206    6.17790400487567
H        -0.72311417425144    3.01311979567934    7.91417644161632
C         4.06277949855421    7.34847844834929    4.84676952890250
H         4.63491588664689    7.44204467853248    3.94379417919307
C         3.79403536423148    6.21866372760057    5.55398620563713
H         4.15388893574920    5.24333936960935    5.26400660019436
C         2.99991374218470    6.45167450160296    6.70755989682428
C         2.69252191143065    7.78073414420307    6.84579561629904
C         1.94223974824515    8.47285161191367    7.86465197789915
C         1.38329519323442    7.79541687072259    8.95387724967567
H         1.50397817481429    6.71962637817393    9.03672948074010
C         0.66797620294293    8.51502989155854    9.88809482422024
H         0.21194887813810    8.01036618877633   10.72770504921888
C         0.53747617580041    9.88843880701882    9.72284943409625
H        -0.01442457615304   10.48812578849443   10.42995325634608
C         1.13640034979405   10.47073944682440    8.61578109284131
H         1.06797828734961   11.53710138306280    8.43895976270818

