101
CSD_code = UWOGOE | q = 0 | S = 0 | Stoichiometry = C42H46N2NiO4P2S4 | MND = 6
C        -1.64599514439194    4.27401267836368   -0.36983676122156
C        -1.11246134537893    5.20305041410197    0.50924086256181
H        -0.03922892884158    5.30606664272849    0.56430442099675
C        -1.94211112895520    5.98324121988301    1.29882744660958
C        -3.32877035596664    5.82095352764793    1.20670373166213
C        -3.84138559941794    4.89037571776726    0.31504858219494
H        -4.91101706851153    4.76451152264839    0.23530531470028
C        -3.01398438361540    4.11616552105719   -0.47870607464608
H        -3.41614873743201    3.39732411204633   -1.17570878210127
C        -1.35008826259973    6.98406005992950    2.24303160210361
H        -1.63187192749361    6.75577841816529    3.27047705181032
H        -1.71452409181298    7.98530916059417    2.01677328821464
H        -0.26614504441491    6.98528750384605    2.16992442190443
C        -4.25023237986757    6.64443701043747    2.05384839739543
H        -4.11931084411577    7.70546644815920    1.84352457454176
H        -4.04257185443524    6.48926707769791    3.11192400061337
H        -5.28652548302036    6.37977422568089    1.86274158457274
C        -1.87160192423284    0.96587895015215   -3.65787607487193
C        -0.90092318185371    0.46383281806056   -4.50709455308640
H         0.03604499639280    0.99255853903748   -4.59645733865555
C        -1.12642940013711   -0.70260018201426   -5.22240312223046
C        -2.34443941151574   -1.37343462686152   -5.07479802451961
C        -3.29721525990465   -0.86172970186288   -4.20598329873939
H        -4.23537558278751   -1.38207236865601   -4.07978085484716
C        -3.07322922225818    0.30113343540228   -3.49158985083205
H        -3.81120120487522    0.68844581973160   -2.80690230651045
C        -0.06881696732149   -1.22807011363992   -6.14253184762964
H         0.82089226244109   -0.60677660132866   -6.09668660363722
H        -0.43115829744876   -1.24444143062126   -7.17015957230219
H         0.20346039174176   -2.24670929298642   -5.87042954718311
C        -2.62300351684885   -2.62456795412895   -5.85022441335517
H        -1.86443589760408   -3.37949250290543   -5.64927903015045
H        -2.60992175433828   -2.41906726346988   -6.92030862155413
H        -3.59641759453615   -3.03052966027709   -5.58826448480723
C         1.70063444084134    2.32077906850156    1.49162783933004
H         2.43787441857723    1.89284600371259    0.82218558437249
C         1.96411411942524    3.48104877657397    2.20018021234221
H         2.91892799289733    3.97282873973651    2.09685333203517
C         0.97837584662384    3.99781428980521    3.02374061818036
H         1.14240720971350    4.91441783942607    3.57352018375824
C        -0.22342091530412    3.31705793553279    3.12270637763937
H        -1.02406370465072    3.68268319788601    3.74695418773912
C        -0.39304561788205    2.15494045569433    2.39024637703335
H        -1.31547289037875    1.58885148548721    2.44532461987839
N         0.54186701480076    1.67184500666336    1.57500539231592
O        -0.75359991761106    3.53856181942452   -1.13076523939266
O        -1.63031160028671    2.14641570578384   -2.95972226356412
S        -2.07486324343767    0.95933675442246   -0.27900286978287
S         0.92210431886104    1.26646329153499   -1.72032075865982
Ni       -0.00090263537706   -0.00001737857497   -0.00031145116127
P        -0.91143968940034    2.00173400017248   -1.52370144885554
C         1.64518502939584   -4.27369127390586    0.36938412094272
C         1.11176387775200   -5.20310772955776   -0.50935458760701
H         0.03856654923081   -5.30677331428982   -0.56385496273038
C         1.94147622496697   -5.98285980741518   -1.29930890324294
C         3.32808229333899   -5.81973587498922   -1.20792059074199
C         3.84060266930132   -4.88893028911390   -0.31645317308869
H         4.91020332653047   -4.76234542720680   -0.23733725204885
C         3.01314440637450   -4.11517609570471    0.47768457499733
H         3.41527220193407   -3.39612187324889    1.17448621555406
C         1.34955927969028   -6.98412665323547   -2.24309976714152
H         1.63051700398249   -6.75564454970062   -3.27072660191751
H         1.71487450605621   -7.98510616597480   -2.01706221212040
H         0.26566406074565   -6.98613641981305   -2.16928681943611
C         4.24959768672955   -6.64255748387270   -2.05563808780036
H         4.11947220450552   -7.70368449881978   -1.84532874735371
H         4.04124071435647   -6.48741763032405   -3.11358182133336
H         5.28582083392843   -6.37722779628304   -1.86507839926128
C         1.87175035805007   -0.96615509102636    3.65753769473690
C         0.90204062533131   -0.46424313994151    4.50794878574838
H        -0.03491309907857   -0.99286879387217    4.59807738334141
C         1.12846136618391    0.70194457612693    5.22336708551553
C         2.34628739326542    1.37283428672417    5.07442218644202
C         3.29802144669724    0.86132576575021    4.20435681635547
H         4.23617312522303    1.38149587058844    4.07740441124565
C         3.07323265565029   -0.30144448855450    3.49006038566877
H         3.81052615987976   -0.68872335928893    2.80461978749167
C         0.07196441492244    1.22724583594139    6.14487482965640
H        -0.81721942968080    0.60504535650888    6.10119481094746
H         0.43613487855068    1.24494926977530    7.17182189098641
H        -0.20182030301865    2.24536772266565    5.87229806304839
C         2.62586086217266    2.62372150132220    5.84988858673425
H         1.86622471205944    3.37818939341708    5.65133820186143
H         2.61565866526844    2.41756390552652    6.91989000570303
H         3.59832186072143    3.03055626938067    5.58574580488356
C        -1.70243854291194   -2.32069373880435   -1.49150524196476
H        -2.43987697555018   -1.89230804789479   -0.82257752901803
C        -1.96571835170211   -3.48135185509658   -2.19945377060308
H        -2.92061218874790   -3.97299003488776   -2.09621789349653
C        -0.97965176887797   -3.99870750255857   -3.02225338397048
H        -1.14345869313086   -4.91571745661218   -3.57140889330981
C         0.22221978609184   -3.31807899305671   -3.12119366821149
H         1.02315043674861   -3.68415496752992   -3.74479784556210
C         0.39155529342299   -2.15548053106781   -2.38948218470425
H         1.31395025904033   -1.58935706098140   -2.44467234699031
N        -0.54363362415927   -1.67189435761814   -1.57489153293747
O         0.75271119689845   -3.53852970568385    1.13049587968384
O         1.62961444531443   -2.14655945587064    2.95946845552379
S         2.07346945723332   -0.95789755218795    0.28002926822320
S        -0.92249263405901   -1.26575479650174    1.72127044369181
P         0.91042234134571   -2.00173205742128    1.52364571740532

