40
CSD_code = UWOGOD | q = 0 | S = 0 | Stoichiometry = C16H18ClNO2PdS | MND = 4
Pd        9.60612106707640    5.03360538694831    3.78430272105726
C         7.90003374602354    5.16142377974860    4.84436296464414
H         7.02910046886107    4.62864821022393    4.46552992235052
C         7.74508168543871    5.82457019294149    5.99713633587882
C         6.47620666945413    5.86846226472040    6.75401701148721
C         5.25594545546185    5.99079766895403    6.05273960155444
H         5.28340006370451    6.06675492385405    4.97667313596022
C         4.06760812892678    6.02946273258641    6.72074204613014
H         3.13925371426610    6.13082394950095    6.17738118139127
C         4.02039580662891    5.94131536738258    8.12872323452313
C         2.80861126495770    5.97876638205011    8.84707800723285
H         1.88357300101775    6.08387600075107    8.29837082995947
C         2.80213697394644    5.88167754545667   10.21081880086080
H         1.86996704943408    5.90983357475703   10.75562974497731
C         4.00722121324503    5.74205094354532   10.91683282421046
H         3.98379279215708    5.66345656998251   11.99390531288807
C         5.19902424550390    5.70522744479056   10.24908176816315
H         6.12858740924471    5.59648195358161   10.79038610104378
C         5.23955950247119    5.80591890179311    8.84238217263827
C         6.45257980194938    5.77626698336671    8.12648159963671
H         7.36740600056314    5.64094459240706    8.68939770040571
C        10.06433759073231    6.65792509381958    6.23565718314022
C        10.93795301927234    7.50745684382110    7.12730312819137
H        10.60192734771828    8.54278496497728    7.10055071743224
H        11.96201442541167    7.46023653943595    6.76795103384809
H        10.89862577315261    7.15349514413847    8.15502932328745
C         9.61410057246389    2.31348651441771    1.90710741427255
H         9.16802677449455    1.79644747371156    1.06540004540721
H         9.51329180517562    1.71727696505594    2.80954944357815
H        10.65472637780465    2.56483918180637    1.72902663968628
C         8.99130740896739    4.63771603145801    0.55538537815918
H         8.46242338788953    5.58651108107429    0.55013809707591
H         8.59240602509991    3.98307369676487   -0.21087983467045
H        10.05959317183166    4.79450235283009    0.44520807823428
Cl       11.56571316009952    4.86408461812211    2.55453645809873
N         8.79261769581867    6.54325857928657    6.63038181670598
H         8.51434059879040    7.04046643733335    7.46664542140474
O        10.55020116074472    6.13584489609446    5.22535013976460
O         7.30174650953771    3.53938770162474    2.25861742762835
S         8.71764113468473    3.86984051489122    2.17926907179568

