113
CSD_code = UWOGIY | q = 0 | S = 0 | Stoichiometry = C46H54N2NiO4P2S4 | MND = 6
C         7.62061982166735    0.83913563848378    1.79842003550771
H         7.65209980285287   -0.23584717043180    1.93845758588090
C         6.75782992783839    1.62922484283301    2.53029701689006
H         6.10727782799040    1.17885159396835    3.26610062064532
C         6.73179272688293    3.00658532175838    2.32025056712124
C         7.59037259816944    3.50853502572805    1.35241857449924
H         7.62526818263396    4.56056647491499    1.12325728511684
C         8.43064014158891    2.64432821975422    0.67111143918150
H         9.11590065205303    3.01825040959247   -0.08073075958672
C         5.79068534194437    3.85286573799424    3.13181423198364
H         4.76935431032897    3.51084670274682    2.93394784871923
H         5.98787496411962    3.65528971622494    4.19005343282633
C         5.87722041612621    5.35189577305217    2.87812842342781
H         6.87588668573999    5.72247237659141    3.09721233001619
H         5.17221893236275    5.87447403061091    3.52105199887552
H         5.63281785800311    5.58762061701641    1.84510248072535
C        10.86351919593159    1.28147471131687    4.64716711979990
C         9.81037592752776    0.46834583600432    5.02293446413442
H         9.11073588035574    0.13282052817447    4.27347075944458
C         9.67373938352818    0.08877472418244    6.34687535129030
H         8.85327034397909   -0.55237805146050    6.63216873121223
C        10.58270424787298    0.52000123159218    7.30113905154970
C        11.62431617977024    1.34945040237840    6.90126502044114
H        12.33402342892139    1.69578215003467    7.63959995270287
C        11.78824223244303    1.74421042105713    5.58247985086189
C        10.46446194472497    0.09870821445718    8.73464316332879
H        11.25291612713575   -0.61198410334560    8.98179549068901
H         9.50493635538371   -0.37562705939624    8.92228410823834
H        10.56958956193133    0.95586652747631    9.39694184694063
C        12.91044826203805    2.63847692440008    5.16020316827030
H        13.52163700761676    2.14219445899035    4.40736306921053
H        13.53594978504276    2.90281862593479    6.00871425784017
H        12.51538365942439    3.54809124146160    4.70957572429454
C        13.67507482592252   -0.81066448283084    2.38172815053023
C        14.34914280204574   -0.68848536225105    1.18101461800415
H        14.30375626109016    0.24790288095579    0.64579071632204
C        15.05774022110090   -1.76616117465007    0.68065178090292
H        15.58169464777266   -1.66547640816775   -0.25810633130820
C        15.08817855426464   -2.96905611384484    1.36938271781116
C        14.41032601349047   -3.06359595113899    2.57908679674754
H        14.43200831217489   -3.99696507263332    3.12372090547257
C        13.69720259366217   -1.99982383308602    3.10869568458984
C        12.95910861402822   -2.10691338355283    4.40610988161002
H        13.22080739244244   -1.27894900023628    5.06397277483707
H        13.18668412719060   -3.04595511799837    4.90283658204938
H        11.88466745580574   -2.05524872093721    4.22712947621219
C        15.84865160289385   -4.14718491040051    0.83979615169684
H        15.24529414359151   -5.05079788990142    0.90269175035362
H        16.75068693586144   -4.30837066605801    1.43016462513753
H        16.14088616783657   -3.98615555498160   -0.19436624574764
N         8.46028921883776    1.33330447659365    0.88838933017204
S        10.45259788711488   -1.01397350833587    2.03669466639385
S        11.74289060071288    1.66780901159754    0.52979175517970
O        10.99406547926053    1.67617161162967    3.31470726034972
O        12.96307706702575    0.27165240249536    2.89183134587309
P        11.54411340637519    0.65206380996587    2.21861482604552
Ni       10.18004232163754    0.00017294231646    0.00009867483492
C        12.73932961663755   -0.83828678963301   -1.79824754663005
H        12.70780263145416    0.23675741456773   -1.93777673008636
C        13.60245280471294   -1.62793258975550   -2.53020263361632
H        14.25299113030950   -1.17716609378283   -3.26577010752179
C        13.62882555757856   -3.00534287308649   -2.32055323399937
C        12.77012134661268   -3.50783086346716   -1.35310602134461
H        12.73545035035915   -4.55994156394067   -1.12429569309048
C        11.92943167745576   -2.64405244802652   -0.67174766296849
H        11.24447674939976   -3.01830286732469    0.08020514174175
C        14.57025947819337   -3.85109298134589   -3.13228979390984
H        15.59149994177049   -3.50945528621780   -2.93337784840496
H        14.37386779409612   -3.65250347635448   -4.19050150796510
C        14.48330370705867   -5.35034014573443   -2.88003178449697
H        13.48465211517102   -5.72048002852449   -3.09989944651170
H        15.18848453344697   -5.87247245070736   -3.52312724117949
H        14.72719923254675   -5.58709313830610   -1.84711782969377
C         9.49657611234046   -1.28169303358757   -4.64692231525390
C        10.54933733449288   -0.46824932823104   -5.02307179483410
H        11.24891467250083   -0.13216541991335   -4.27379728900847
C        10.68566887646205   -0.08907499642295   -6.34715867427745
H        11.50582679037074    0.55233979258002   -6.63275965451166
C         9.77678933654754   -0.52101910727235   -7.30117984961969
C         8.73555972536864   -1.35075960027908   -6.90091282278752
H         8.02591762007584   -1.69764020274890   -7.63905305649189
C         8.57193915943631   -1.74512713417240   -5.58197366311220
C         9.89470570673459   -0.10016694276633   -8.73484089415902
H         9.10597885966143    0.61017490288232   -8.98213179415101
H        10.85404534291847    0.37443152468422   -8.92276639309142
H         9.78978282857950   -0.95758295807903   -9.39683687333002
C         7.45014528202361   -2.63968901163714   -5.15922998379019
H         6.83883354757231   -2.14334172276384   -4.40653031359573
H         6.82466461399177   -2.90462931024825   -6.00756902492514
H         7.84562762242643   -3.54895707204857   -4.70826884646290
C         6.68497383119205    0.81056992413322   -2.38161515875380
C         6.01081741052121    0.68802151219381   -1.18098781025695
H         6.05634084860580   -0.24846391641786   -0.64594808663921
C         5.30194589548227    1.76544630223534   -0.68047307779602
H         4.77794808020291    1.66447011732852    0.25822861351292
C         5.27130397464729    2.96846367053140   -1.36897801928091
C         5.94929390186918    3.06339559489795   -2.57857567714010
H         5.92744522156894    3.99686288229451   -3.12303418367132
C         6.66270387262369    1.99988475736056   -3.10832714321905
C         7.40091100438501    2.10742350547557   -4.40563949692293
H         7.13906506826681    1.27983390021776   -5.06391769108019
H         7.17357957323930    3.04675486088606   -4.90193173273395
H         8.47532682955793    2.05542953130588   -4.22661502135243
C         4.51047525533860    4.14630916989949   -0.83927353089361
H         5.11370764464574    5.05004045532520   -0.90170177194136
H         3.60860877095245    4.30753169191500   -1.42988963095644
H         4.21792815181731    3.98491751454422    0.19474505566636
N        11.89962676229849   -1.33295036500237   -0.88851604400620
S         9.90756345280768    1.01426467296712   -2.03655987056234
S         8.61724279835791   -1.66749650902670   -0.52949242416682
O         9.36632312894432   -1.67604934151357   -3.31433474900692
O         7.39720937469062   -0.27153819974717   -2.89185388218392
P         8.81610068359521   -0.65185800878755   -2.21840761972440

