117
CSD_code = UWONEA | q = 1 | S = 0 | Stoichiometry = C61H48ClP4RuS2(1+) | MND = 6
Ru        9.75761166020835    4.43802558317062   10.99288641072413
Cl       11.43669486742780    4.43808899593262   12.67011457005897
P         8.51459463804159    3.04617434139416   12.41519566063484
C         6.88615315875711    2.48779898681807   11.83896871812132
C         5.73197211732467    2.53796055705747   12.61189361793025
H         5.75714453562749    2.93843843845415   13.61515033586112
C         4.54150682861698    2.04953709242735   12.10256096072691
H         3.64557965634923    2.09177158905920   12.70368990163984
C         4.49652611206851    1.50226930050224   10.83045140028510
H         3.56392140776862    1.12549717183540   10.43940424554220
C         5.64914212254707    1.43053720523484   10.06451904982793
H         5.61848476973874    0.99316055592977    9.07790302167799
C         6.83980127216659    1.91900232359424   10.56787700413693
H         7.75215114449273    1.86276305138926    9.98495976759896
C         9.08773043422756    1.64635373259408   13.42454624732087
C         8.53470449410147    0.38034070516251   13.24382129151880
H         7.73695337889193    0.23497449171174   12.52937134316691
C         9.00016582364352   -0.68961161634955   13.98487626650783
H         8.55721865222771   -1.66506825431676   13.84943121498700
C        10.02956170677900   -0.51398093785324   14.89496540978577
H        10.39168857850900   -1.35252597043960   15.46989903328943
C        10.59442244631489    0.73901152420203   15.06415628938752
H        11.40123792580071    0.87992902239037   15.76738372881849
C        10.12872598950739    1.81630278159096   14.33471116843639
H        10.58978286261602    2.78345209156537   14.46763842149339
C         8.18810292855549    4.43793572165911   13.60273668378997
H         7.20966225899821    4.43793871144590   14.08630955236933
H         8.96895455796641    4.43789637806122   14.37140555896352
P        11.38465460352502    5.80811693917568   10.05906134152209
C        11.37201484370369    6.51522638112017    8.38684398365662
C        12.52296020108853    7.14074959729944    7.91412054865254
H        13.39401129758994    7.21452828171109    8.55276607481720
C        12.53989030237079    7.66805499362683    6.63766354477721
H        13.43035838658659    8.15290385444103    6.26699526726308
C        11.41204335037326    7.57877111570869    5.83471085465886
H        11.42842008502367    7.99600037188667    4.83937706912851
C        10.26611335250669    6.96120517273620    6.30681047267914
H         9.38740469285734    6.90064441870307    5.68165983877545
C        10.24354381242923    6.42659732965318    7.58376176235837
H         9.35767560557470    5.93782706530429    7.96946958701007
C        12.06176345242615    7.17203321268697   11.03994965877587
C        13.24576156453637    7.13815284554599   11.76318780424088
H        13.87821935944036    6.26251836843607   11.75172128135478
C        13.61532919208038    8.23891962399092   12.51662413532558
H        14.53537406923552    8.21390197337464   13.08104717847857
C        12.81272230419321    9.36644664370039   12.54931181327535
H        13.10942521908989   10.22103568897118   13.13779164007696
C        11.62824264061057    9.40089251300377   11.82947848709099
H        11.00265579823846   10.28006871496816   11.85494827614452
C        11.24857145087199    8.30351275985706   11.08398311286900
H        10.31984767187916    8.30552395147767   10.52260875812533
C        12.63484257772552    4.43856693417113    9.87103067543247
H        13.13482387184662    4.43866304288893    8.89769554115133
H        13.36924813656526    4.43880128590871   10.67996596384535
C         8.40857621827391    4.43766125420006    9.64281879829822
C         7.43339440870499    4.43781322430448    8.87486525458587
C         6.40044135578528    4.43841760729836    8.00341555703850
C         4.99329770081964    4.43941525658685    8.33506939802634
C         4.24895325927088    4.44073409475763    7.15101404344617
C         5.15943340771491    4.44040748169522    6.04906210981304
C         6.46304772778173    4.43888538237860    6.55817324437597
C         7.43885090175815    4.43832397681887    5.54050209494422
H         8.50083696800207    4.43702448965794    5.71052230628509
C         6.86643277274173    4.43949689474881    4.30576621894013
H         7.35580821584714    4.43942296602452    3.35215327456335
S         5.13163535565330    4.44128415576260    4.34208275097562
S         2.56762268785217    4.44220544297629    7.44795373795673
C         4.18075223191074    4.43956895470595    9.48549199978029
H         4.55415313898244    4.43863868375994   10.49277289464883
C         2.86017100848581    4.44098528201721    9.15809660049350
H         2.01615167664549    4.44142114339536    9.81835918493304
P         8.51459243028285    5.82971555042940   12.41522150707077
C         6.88619738407594    6.38841116669807   11.83923087873653
C         5.73228639721665    6.33907154168089   12.61261141278269
H         5.75764068724632    5.93877187934152   13.61593842490335
C         4.54192959641310    6.82812872947265   12.10364667305468
H         3.64620742214027    6.78657111382518   12.70512690769273
C         4.49681754585909    7.37523236053715   10.83146921562803
H         3.56431428601099    7.75258873308676   10.44074358578420
C         5.64916560844702    7.44605261190319   10.06504797938371
H         5.61839875558665    7.88325692670088    9.07835922934587
C         6.83971625476582    6.95692772224952   10.56802382357805
H         7.75187083302726    7.01243415075733    9.98472297985462
C         9.08804900852515    7.22948665144194   13.42445306232252
C         8.53558184848351    8.49566589603087   13.24319632985438
H         7.73806741833316    8.64112782697743   12.52850444174800
C         9.00127284830259    9.56565965531077   13.98403951887777
H         8.55873466271924   10.54124171995943   13.84818841064539
C        10.03038761440483    9.38992026548562   14.89442254761128
H        10.39272809679396   10.22850317604393   15.46916354287768
C        10.59468474647765    8.13675630174576   15.06416383636667
H        11.40127428863432    7.99572645547657   15.76762586804414
C        10.12870291441579    7.05941213791623   14.33498784079247
H        10.58928557312568    6.09211937397718   14.46845282876499
P        11.38524127656029    3.06850560809632   10.05920969336214
C        11.37245359098918    2.36120453135035    8.38709074117692
C        12.52430218774787    1.73824768706094    7.91319710352911
H        13.39623146543734    1.66661007043670    8.55089430782866
C        12.54102272366458    1.21077671343181    6.63680749589814
H        13.43221453092940    0.72798208175105    6.26518516722122
C        11.41205139818536    1.29726237750385    5.83512675209506
H        11.42828781591679    0.87993201874785    4.83983189839333
C        10.26519132893352    1.91216170469455    6.30843973027759
H         9.38561761939457    1.97052228648249    5.68429580421213
C        10.24283705007852    2.44696087664097    7.58531157391486
H         9.35627974150315    2.93377978015680    7.97190219652738
C        12.06311472018726    1.70512042223302   11.04033246164390
C        13.24768460895979    1.73949796818322   11.76263099602206
H        13.88016537286815    2.61510209311360   11.75001290033468
C        13.61782267260109    0.63927225661996   12.51657794453288
H        14.53828072559673    0.66470265744965   13.08030819051687
C        12.81521585472403   -0.48822144767209   12.55069666426580
H        13.11230926469955   -1.34234447574124   13.13965773858534
C        11.63021611158857   -0.52320017564115   11.83173525423968
H        11.00464914275573   -1.40236404418878   11.85831644967224
C        11.24998536011773    0.57364552766609   11.08573055813716
H        10.32084600751805    0.57121858937966   10.52503651653116

