75
CSD_code = UWOPEC | q = 1 | S = 0 | Stoichiometry = C40H24I4N6Re(1+) | MND = 6
Re        2.40251542771309    7.87687990377796    3.85044337033577
I        11.64138015710042    8.17749533289637    2.19449647806637
I         0.66230971282975   13.23652169252827   -3.66033378049464
I        -6.84284391863753    7.40173391440849    5.46000712614076
I         2.00441130752607   -0.14803529273058   -1.01216543550724
N         5.54285930196606    8.02883722506489    3.42784319292675
N         1.89976350007332    9.69699434215177    1.31028005241149
N        -0.70933609126019    7.72906115548417    4.45118512667062
N         2.30246377447754    5.14552089035484    2.25248295723107
N         2.56624780095379    9.55899576860046    5.21174551309895
N         2.76022578513243    6.94552163754044    5.77814642317544
C         4.38267396117019    7.97011076479737    3.56277192957565
C         2.07798664654266    8.97477413871912    2.22183952806962
C         0.43475989706459    7.78953489765752    4.21731447693262
C         2.31696018007256    6.18216370968267    2.80888249398460
C         2.47228593126096   10.84636057709223    4.92073553455075
H         2.27959691742025   11.09541165547841    3.88506557075344
C         2.60898946067580   11.85622545697151    5.87200806220278
H         2.52219911387611   12.88593846168536    5.56509653958859
C         2.85161100058799   11.52325612977843    7.18457488546657
H         2.96226366190973   12.28025788500627    7.94548354380621
C         2.95523671484100   10.16639170645495    7.52964769696334
C         3.20186216467059    9.71638091683946    8.85828966137779
H         3.31229165192406   10.46031480031954    9.63233270830902
C         3.29442323873926    8.39553589310438    9.14547775922709
H         3.48011747195762    8.06012834929940   10.15432634567542
C         3.15070990991642    7.40819568845793    8.12901709748869
C         3.24064160465433    6.02958087987390    8.37841798444904
H         3.42663296674718    5.67688693058475    9.38106326551932
C         3.08775376753173    5.15491534887687    7.32763281488229
H         3.14931130874955    4.08903472969231    7.47640583786975
C         2.84997711918758    5.65321599613053    6.04749303455328
H         2.72825284305571    4.97554592496811    5.21211751931693
C         2.90646917574245    7.81974027693865    6.80144445990393
C         2.80539947131587    9.21427855023676    6.49883980593600
C         6.87077684624429    8.06283284128867    3.16259368078608
C         7.33202252358331    7.66988769871020    1.90498403579301
H         6.62690296382248    7.34412340888991    1.15536673986283
C         8.68465336668965    7.70451361053601    1.63529284380336
H         9.04631826418698    7.40179409690787    0.66510171673493
C         9.57310472774460    8.12862569850857    2.61373993439655
C         9.11812954456669    8.51937843682690    3.86471596562551
H         9.81479052475661    8.84788800107481    4.62005585542000
C         7.76668561639533    8.48785660324179    4.14353268557479
H         7.40061477584857    8.79034816773493    5.11339102525544
C         1.63469333209383   10.45768392864334    0.22174911476152
C         2.60692887273995   11.32988024155011   -0.27030351244050
H         3.57113747935420   11.38304273946767    0.21163523841453
C         2.32871040717262   12.11365197600689   -1.37159711618129
H         3.07839013243991   12.78785002714962   -1.75509027439627
C         1.08474827754125   12.03049823950584   -1.97985223842457
C         0.11444533451995   11.16486872541001   -1.49574608768984
H        -0.84969144999277   11.10495003852976   -1.97581739803640
C         0.38479348141293   10.37760623131807   -0.39534196449151
H        -0.35794539929833    9.69775794513698   -0.00738230344702
C        -2.04451878825669    7.65780093284681    4.67205339076869
C        -2.84599766289158    8.77493840711144    4.43553791975011
H        -2.39886185774465    9.68942038732392    4.07635303878461
C        -4.20538161743803    8.69783878413638    4.65992806763481
H        -4.82947100478628    9.55835202077979    4.47688968840336
C        -4.76267883316738    7.51303061772333    5.11933090141721
C        -3.96840380134522    6.40042670267185    5.35703130650368
H        -4.40920511341830    5.48251947905051    5.71291842907898
C        -2.60802219892419    6.46872532037326    5.13526268525992
H        -1.97847158658849    5.61010330873452    5.31325271656850
C         2.23767252407322    3.99717809332920    1.53762657199099
C         1.04865268375232    3.63942067180803    0.89927456229838
H         0.18874719008943    4.28701405128919    0.97317360282230
C         0.98738982332502    2.46501406538520    0.17750700142280
H         0.07100815308369    2.18634450642362   -0.31872398970604
C         2.10555058964400    1.64795311849286    0.09277961048787
C         3.28935834726967    1.99745807285890    0.72589179345288
H         4.15459975003867    1.35720591608616    0.65454314157830
C         3.35876948537968    3.17023411778904    1.44993728790626
H         4.27395135861411    3.45547653063904    1.94589475185394

