87
CSD_code = UWOQAZ | q = 0 | S = 0 | Stoichiometry = C35H45Cl2N4V | MND = 4
V         7.75282559698428    5.78220811506068    8.11249833782824
Cl        5.93937446446543    6.72813659064724    7.74262380883518
Cl        9.22154691223061    6.64145539509498    6.90756544378271
N         7.58152490591976    4.23076808182368    7.70751090737424
N         8.21022105068948    5.74743176233941    9.72464129252964
N         8.21999986229865    5.47274205921977   12.08582935740934
N         9.90791154749853    6.53608626606825   11.16418851325176
C         8.71987745749780    5.90204649802157   10.87918720689362
C         9.08813856056012    5.84676939933606   13.08956769931537
C        10.12432289601059    6.49813973099134   12.52362475152482
C        10.70609865940586    7.16444838633250   10.17080032639105
C        11.69104529493609    6.41887441881778    9.52032463150204
C        12.42535351735793    7.04063417563088    8.51957636749037
C        12.18293162660798    8.35688970281654    8.17845351529255
C        11.20288431720987    9.07846987281598    8.83246516202898
C        10.44683348135412    8.49778118371667    9.84163051348873
C         7.02817359245395    4.71438199756040   12.23129200520926
C         5.81431502144014    5.38229226547646   12.39760273017451
C         4.66012304137401    4.61919513621052   12.51821801180772
C         4.71720618541067    3.24025584576147   12.46986969037882
C         5.92928901990309    2.59640293539204   12.30556119985467
C         7.10815532672339    3.31934689185445   12.18941083649770
C         7.25370538146480    2.97204302603394    7.41715755676758
C         6.06762881067123    2.42224571531432    7.97004464777323
C         5.73053379343697    1.11445561825181    7.68033150339060
C         6.52577981132053    0.33402574940926    6.85497967731637
C         7.67475398512857    0.87202940012229    6.30198784580983
C         8.05512432950575    2.17623526663176    6.56649975539923
C         9.30247347582131    2.75043003682011    5.96475603478392
C         5.19844835574226    3.28432870940497    8.83267809738605
C         9.34192174507757    9.27224626548455   10.52268970722440
C         9.80895790776533   10.65525294427594   10.98123953922908
C         8.14605414055335    9.38620902237151    9.57307485601283
C        11.92066946292689    4.96509013090986    9.85638797351540
C        13.39531731975089    4.67524250509351   10.14444183962573
C        11.39954349890831    4.09789063043949    8.70771269484884
C         8.43150803573034    2.62248588854898   11.98234112137103
C         8.59386407129170    1.39972541639284   12.88737689746476
C         8.56587439406267    2.23104879271822   10.50797551433240
C         5.74438922759030    6.88983240957991   12.43769564792766
C         5.14232829507919    7.37496853830602   13.75870389431476
C         4.94397355204331    7.40703766734106   11.24177360212908
H         8.88486820942549    5.61390236814094   14.11443954589137
H        10.99629156414085    6.93826883480493   12.96195794770636
H        13.18184713058147    6.48557160478660    7.98735745062866
H        12.75218216255158    8.82067270844169    7.38654534847891
H        11.01416313313456   10.10020803374745    8.54170177449563
H         3.70686959207409    5.10816421055138   12.64438303375682
H         3.80951128865686    2.66186341113438   12.55851385373104
H         5.95593256434709    1.51971862683462   12.25992798664881
H         4.82659324620025    0.69848110001715    8.10338678630181
H         6.24495043539873   -0.68588909683999    6.63836997488580
H         8.28912191073807    0.26972472828860    5.64742609447039
H        10.17060631712650    2.46884347015726    6.56161828310110
H         9.24605074017027    3.83947435112217    5.94003516299648
H         9.44834223773302    2.37262720077960    4.95462066199928
H         5.80892176811869    3.87511266283526    9.52047184004868
H         4.49042889331673    2.68247522082424    9.39734106576098
H         4.64017975719697    3.98521084900596    8.20847630584211
H         9.01783279913044    8.72248978641241   11.41356041450334
H        10.02330679324075   11.30147281871458   10.13452034055183
H        10.70771981271993   10.57346374680920   11.58927848410456
H         9.03115806292583   11.12866133189727   11.57673732199803
H         8.42505400066916    9.93097157813135    8.67315438618420
H         7.32486151476761    9.91165098950045   10.05704564457502
H         7.79879780806788    8.39139169002339    9.28293994956221
H        11.34869483344359    4.71133863022339   10.75483660394044
H        14.00466835949837    4.81345833810358    9.25575661668753
H        13.51131448729647    3.64612071903398   10.47696282254145
H        13.77037715540226    5.33459006496851   10.92464961326441
H        11.95561828329381    4.30262624149776    7.79586168877738
H        10.34349113884253    4.31551841655197    8.52569016136541
H        11.50773851523581    3.04383022201056    8.95433445654234
H         9.23951719735308    3.32075372516486   12.22409403091286
H         7.93538110150731    0.59220878234140   12.58048805571920
H         8.37445658047337    1.65398740394403   13.92226108526146
H         9.61707779751558    1.03537599099209   12.83111745535996
H         7.77540421027703    1.54093459073511   10.22299831037135
H         9.52484134694804    1.74899208716837   10.33400109451477
H         8.49391576879788    3.11484604901599    9.87202250952525
H         6.75844921065702    7.29580159245273   12.36233171789012
H         5.70989519073230    6.98820656474245   14.60291698796688
H         4.11110185509639    7.04791956333107   13.86070522424144
H         5.16052465317960    8.46177977859219   13.79923636121070
H         4.94488638785140    8.49484768446189   11.23073932275657
H         3.91305846217671    7.06523957828570   11.28673260517289
H         5.38539378988732    7.04581130569104   10.31346290226494

