60
CSD_code = UWOTUX | q = 0 | S = 0 | Stoichiometry = C20H31NO5P2W | MND = 6
W         2.41393714154845    5.37718883430641   17.23411213263918
P         2.91360315010144    3.14807021243116   16.57054568274174
P         1.05261822374735    7.28139549671826   17.65684276526314
O         5.26905140585208    6.55698921683280   17.65705944183246
O         2.61241532531961    4.70469330252200   20.28035361043517
O         2.58246108245703    6.21601220608673   14.22432624790726
O         1.38519603315117    2.56399531602221   16.26562197128986
O        -0.46582056572506    6.62952916221712   17.45924118922914
N         0.46098746648857    4.58401984539630   16.90761669996375
C         4.21276940964812    6.11859403461859   17.50326280891368
C         2.46364613309375    4.91515737930624   19.15801939402912
C         2.49488446369055    5.89764371481881   15.32575210992560
C         0.30092841928907    3.32437534258679   16.48856851486360
C        -0.95363720669253    2.77122212640973   16.25986801203624
H        -1.02594961880292    1.74987610907028   15.92623785258366
C        -2.07251599071415    3.56027945893993   16.46591436367515
H        -3.05954677260600    3.15955005600466   16.30028608352829
C        -1.91030335286756    4.87223583382103   16.87750557365115
H        -2.74742686414220    5.53035003043711   17.03800121183422
C        -0.62103282300803    5.34982084489283   17.08219085377469
C         3.52229434631046    1.77575956032111   17.66802945224401
H         3.70611007669818    0.88145013823553   17.06364111449493
C         2.47394747715452    1.45340008327657   18.72737604705082
H         2.88056706232506    0.75437203934028   19.45643255901521
H         1.58927441625514    1.00515679845299   18.27842948262085
H         2.17385597007594    2.35742401965826   19.25451028225756
C         4.82137824802119    2.25386328384142   18.30623104959350
H         5.22367970387975    1.49431251630420   18.97472343195280
H         4.64075177510900    3.16313220657256   18.87798248298877
H         5.56908722448029    2.48089141404703   17.54971320233092
C         3.62906963779473    2.80057859038845   14.88890082057610
H         2.97360456952771    3.39164823906842   14.23264313738399
C         5.03888898993275    3.37008043775870   14.79413604384772
H         5.35222234228103    3.43972357450358   13.75397344879468
H         5.74998895147833    2.73548824095200   15.31881216594162
H         5.07043795987108    4.36636674456051   15.23631968911708
C         3.56074667896286    1.34130235473728   14.45244465234563
H         3.72527311058839    1.26959815619699   13.37841174604496
H         2.58389512506949    0.91734860402202   14.67918920334762
H         4.32793008261112    0.74814300875714   14.94567846497443
C         0.78848469234737    8.12984509445401   19.28950999986622
H         0.20283586983400    9.04163842295067   19.13293873375894
C         2.16985558196656    8.48488907052893   19.82932567479065
H         2.08853305768934    9.00900767674243   20.78024506420148
H         2.71328868211461    9.11619909888891   19.12965401403986
H         2.75409417043729    7.57803363351294   19.97856905333564
C         0.03942272838426    7.21551626317551   20.25234835462684
H         0.00325495809022    7.66623332034839   21.24287492461348
H         0.54239057001138    6.25407075554872   20.33514327528587
H        -0.98097612445049    7.04443063205656   19.91462376137987
C         0.90122359752603    8.62430439918607   16.37640342223072
H         0.74680238243739    8.04741323656935   15.45246588841479
C         2.21826149443360    9.37972645241840   16.25443402301149
H         2.24015565660041    9.96076932896072   15.33411689410274
H         3.05263712558308    8.67776928272728   16.24438353763097
H         2.35023622351708   10.06461185020972   17.08954223094039
C        -0.28924317390630    9.55804765348043   16.56746347946449
H        -0.48250094762404   10.10352003869554   15.64507306932166
H        -0.09380512174069   10.28870971222686   17.34943685348287
H        -1.18362023149812    8.99382554289792   16.82664274846424

