72
CSD_code = UWOTEH | q = 0 | S = 0 | Stoichiometry = C24H39MoNO5P2 | MND = 6
Mo       12.29972656611169   11.67803092817315    2.72424166599161
P        12.67032908192389    9.35474262117646    3.06674705691961
P        12.80983007245248   13.99928853262869    2.78091039254699
O        14.32186136716444    9.33435320166572    3.11746674789713
O        14.46014450448609   13.92600732090683    2.81851716247436
O        13.93438560034984   11.47726912820574    0.11687897053073
O         9.40781745636096   11.69792455260882    1.64987723731115
O        10.67757084874226   11.89089127659549    5.34500438768124
N        14.36690538974142   11.64402512621939    3.17029333952785
C        15.01668843698869   10.47581726411397    3.21778083870521
C        16.40114588562184   10.39677937057157    3.32008553032306
H        16.86882479653951    9.42829605458235    3.37875639424537
C        17.13494069446709   11.57026875906881    3.31875309811779
H        18.20915698287332   11.54347811979814    3.40406606717274
C        16.47289533770800   12.77586136697192    3.16421815450044
H        16.99806647414199   13.71390740276159    3.09787492559633
C        15.08582708900023   12.76746990688820    3.06825914618886
C        12.60224376744905   15.19877976681236    1.33874855942064
C        11.20311745294471   15.79934082038431    1.44886376849300
H        10.91391355245668   16.25154543644628    0.50114256863054
H        11.15309180977520   16.56888847854473    2.21413159082960
H        10.48298283162338   15.01480820194340    1.68742214930973
C        12.64953007205366   14.33616546760873    0.07798877415863
H        12.41290874403266   14.94214478764429   -0.79623429182714
H        11.92200573132758   13.52637202087886    0.13902118135349
H        13.64464253416473   13.91920089429566   -0.06559955168403
C        13.68196640934682   16.27314239194172    1.21158359629374
H        13.63250675564699   16.70741106517136    0.21339214626687
H        14.67179835862434   15.84063955485575    1.34109823011305
H        13.55549429588454   17.07832566779939    1.92622858919739
C        12.58205249813592   14.96308381889954    4.39956531417698
C        13.28885965421443   14.11832818030011    5.46635056519502
H        13.02166439744388   14.47178708440667    6.46134379932744
H        14.37184021983614   14.19214282851017    5.36455526533271
H        13.00680547001157   13.06902062758381    5.39607940182565
C        11.08813397520733   15.06679589699107    4.70909266883066
H        10.92743818235092   15.14703759201944    5.78314616136432
H        10.55248774831623   14.19012602889087    4.34866165754049
H        10.64648290928898   15.94245283894057    4.24143714120906
C        13.23080648334561   16.34621850192227    4.42340388996355
H        13.25198935339426   16.71050916251188    5.45070794093300
H        12.67178587867512   17.06679072230616    3.83348581288416
H        14.25522586514463   16.29932370859893    4.05946721566645
C        12.40084841705306    8.00304752274889    1.77716801574045
C        12.51670280464255    8.70121901832113    0.42263352764226
H        12.25669252287093    8.00778923754008   -0.37674818444948
H        13.53679134540008    9.04009398484250    0.25064524068740
H        11.83752900768055    9.55245538099280    0.37010009336912
C        10.96496849301939    7.50922269874962    1.93401417138747
H        10.65656138742421    6.96466045227991    1.04259128616194
H        10.29462925886791    8.36057039669259    2.06400165518994
H        10.85790480744889    6.84270535153498    2.78531018738635
C        13.41073584447621    6.85581628641075    1.80007510535360
H        13.34855186893432    6.31111022497756    0.85835700060932
H        13.22151222849039    6.14953280875536    2.60029946573065
H        14.42444507061584    7.23772719720475    1.90072929407681
C        12.37442165224201    8.60910353587992    4.78618588745699
C        13.12973850180189    9.52910912223004    5.75274851765041
H        12.83185914435653    9.31957597845628    6.77922032404416
H        12.92127311960829   10.57844210251264    5.55037968282121
H        14.20570231966770    9.37055694867400    5.67703354565870
C        10.87538043762900    8.63881887869056    5.08636328840626
H        10.70405694138029    8.68988952379871    6.16056814637605
H        10.37916433420598    7.74709176881303    4.71333460071913
H        10.40102719898533    9.50266501295465    4.62363821317906
C        12.93089488737424    7.20010221544168    4.98489864256004
H        12.92201484976903    6.96219113372422    6.04878248839828
H        13.95828123544346    7.13648422213896    4.63219073527256
H        12.32908506325139    6.45109378991099    4.47843714242901
C        13.20930018250666   11.54884706557506    1.00352494153324
C        10.48217525743114   11.69038186496365    2.05996183748371
C        11.36566028205354   11.81220379604074    4.42933988659275

