60
CSD_code = UWOTIL | q = 0 | S = 0 | Stoichiometry = C20H31MoNO5P2 | MND = 6
Mo        4.34579498898791    2.55048771623416    2.40851496731045
P         6.41573031124319    3.58978666445612    2.69375569526281
P         2.04335667647231    2.36612136609488    2.08067189612810
O         5.15998170784463   -0.42122567656601    2.54978095366642
O         5.11755185215558    2.40147620881258   -0.57996212659817
O         3.68914916858611    2.28170604879729    5.41614223621762
O         6.01627857225535    5.17401404094259    2.40831460510642
O         1.57659911228834    3.95135384433272    2.22181776693302
N         3.79551275497459    4.56581123976219    2.31480921305287
C         4.85641379264664    0.68468843029062    2.49614644368940
C         4.78663547707043    2.50439523778436    0.51268643525531
C         3.94571303913329    2.44788947544380    4.31133628167048
C         4.72530035269664    5.52471156008129    2.33410213727239
C         4.40087847769991    6.87566687938249    2.27120853992611
H         5.19073887142293    7.60763718351863    2.28803043174332
C         3.06620241199659    7.23307071292687    2.18917849724563
H         2.78210174553905    8.27187383088530    2.14019991756575
C         2.10026951137104    6.24188222574613    2.17064342314625
H         1.04879658187128    6.46661173777114    2.10871864383991
C         2.50841232760280    4.91388987774217    2.23395965818867
C         7.76496239789676    3.48931393882703    1.42419330511568
H         7.22649577666101    3.73446846004108    0.49606474426595
C         8.28589631071203    2.06167781914333    1.31519344348938
H         7.45402219615346    1.35538104843365    1.31575676036102
H         8.85066037809756    1.93261495693268    0.39344023234534
H         8.94302682695426    1.82371267022770    2.14932185747634
C         8.89019203061926    4.50275273901434    1.60812582756157
H         8.48727818806495    5.48532784374568    1.84838093802011
H         9.57103568514175    4.19444782650919    2.39886480906283
H         9.46620620717253    4.58383315351594    0.68764375980735
C         7.28516226905316    3.78966017611199    4.32155109332261
H         8.25122981776182    4.27989674177845    4.15911959233043
C         6.44059459375677    4.65324945502104    5.25228749901614
H         6.40768435222178    5.68568054410723    4.90651650140267
H         5.42009854083399    4.27331193742101    5.30606935157315
H         6.85870163120906    4.64202315396341    6.25760185511913
C         7.49644665959597    2.39603776162205    4.89975115943698
H         8.08367192503879    1.77802221855388    4.22404917278303
H         8.01195050382019    2.45036653519681    5.85743199547440
H         6.53501615332899    1.90578261651565    5.04777248445576
C         1.23888516795483    1.95954942776378    0.45760841572543
H         0.15429822370479    1.89338721671830    0.59661029870805
C         1.78959985652335    0.61500698513201   -0.00100366406169
H         1.58959361818718   -0.16068870437209    0.73517267467527
H         1.34215512342901    0.31872654007686   -0.94858371460477
H         2.86932156702534    0.68025243153604   -0.12986566392433
C         1.54372412702995    3.05764677760074   -0.55577781476321
H         1.02726846926296    3.98180365134759   -0.29968645316372
H         2.61478437600190    3.25838237314809   -0.59226529990597
H         1.22367024788857    2.75068532898785   -1.55020185622986
C         0.89501030294230    1.70214290201123    3.37762025182878
H         1.21715521708249    2.25236646166863    4.27479001813173
C         1.15345772576609    0.21788887265596    3.60461112828153
H         2.22656984311899    0.02397618260092    3.64659931444277
H         0.70468401426627   -0.10710812424959    4.54177403459272
H         0.72443064846532   -0.37760749078240    2.80106652053091
C        -0.58104066559843    2.00139462831267    3.13481851511180
H        -0.71649803371337    3.03238689673983    2.81206896044084
H        -0.99830049753781    1.33567933143387    2.38212236006597
H        -1.14261950975063    1.85351811054836    4.05592997507755

