93
CSD_code = UWOXUA | q = 0 | S = 0 | Stoichiometry = C38H49FeN5 | MND = 4
Fe       19.49674450852269    8.56681501891583    7.91694905468975
N        20.70110464250104    6.99119958155836    7.88662642354940
N        18.58678990359624    7.45428955389323    9.06120692160274
N        17.81822188785756    9.50239485960661    8.06539853690471
N        20.10174737683933    9.27664399055459    6.22074229715089
N        21.89118813953808   10.43590520968355    2.59100471627689
C        20.37648785900789    6.06526707426379    8.78118086311782
H        21.04300266307092    5.24317983643724    9.02160001020965
C        19.14940609366333    6.26809825123815    9.44265910985501
C        18.50370086777959    5.43299040998650   10.35923698174080
H        18.97181341851316    4.50916650997050   10.66333432730617
C        17.25897732013975    5.79908600524372   10.84674820979910
H        16.74444284726353    5.15821040999236   11.54802780037208
C        16.66331424580209    6.98072088289952   10.42349638816737
H        15.68422839859691    7.26864925309954   10.77489153622912
C        17.34572013685584    7.79549160021472    9.52040705491282
C        16.95176007053722    9.02344656740976    8.94332705414484
H        16.04234886886882    9.55190957814138    9.21180058960284
C        21.85599863543606    6.85129520742166    7.12174521954398
C        22.88390718225105    7.80484842072390    7.25927378965061
C        23.99873219418595    7.72387655781277    6.44502309732327
H        24.79666585685336    8.44248981045240    6.54993065076018
C        24.11667201399527    6.71983628381666    5.50017004284579
H        24.99546130998841    6.66560804472331    4.87372303443100
C        23.11361655615275    5.77949694150807    5.37333797163859
H        23.22062046150390    4.99108735377807    4.64314856840910
C        21.97797689675510    5.82427724156237    6.16768573953372
C        22.77271758655932    8.84694355133387    8.34824235946077
H        21.69760883385604    9.05988777576201    8.48933366792725
C        23.30939254420872    8.26868860767831    9.66108321894858
H        22.73758249037117    7.38938695236878    9.94763441711643
H        23.23505356532253    9.00472293095066   10.45913259850866
H        24.35329861531798    7.98095915995128    9.54801239921652
C        23.47462342034733   10.16088784842416    8.01479035368893
H        23.18499008077434   10.50687074218876    7.02500526051043
H        24.55609632547160   10.04882294822315    8.04775590302378
H        23.19736115437156   10.92067590418436    8.74275940947608
C        20.89996270210905    4.77749840100209    5.98990462704285
H        20.01985892600400    5.08426171225451    6.56443162467783
C        21.37919122739446    3.42606530113457    6.52871357815081
H        22.25587328176439    3.08621291097403    5.98119460836601
H        20.59497094473344    2.67873491985126    6.42565461839719
H        21.64572309789609    3.50193914428453    7.58012428110749
C        20.47661544812945    4.62860789405454    4.52582924366081
H        21.27197389671145    4.19016722450842    3.92803835768710
H        20.21837774170389    5.59413256705668    4.09756331428036
H        19.60732718513338    3.97731281532617    4.45807840816091
C        17.66378074106428   10.76727051162031    7.50165909155232
C        18.02267502194880   11.90915319013008    8.24173057767729
C        17.99058009888534   13.14265508150894    7.61153807446643
H        18.27407401980918   14.03345195007912    8.14973105585759
C        17.58989198608119   13.25809087787511    6.29202519786152
H        17.56214907961274   14.23096526565029    5.82274545352091
C        17.21986524782709   12.13399412305575    5.57750866478224
H        16.90054604300485   12.24092164185143    4.55253094120717
C        17.25901844644558   10.87964235492631    6.16309511282459
C        18.46576945182651   11.74858280152174    9.68193166691529
H        17.81892909555538   10.99795622887921   10.14830092193935
C        18.35309028876660   13.03165119788741   10.50435740168369
H        17.36317577416711   13.47026049317802   10.40098132203531
H        19.09660005642103   13.76387215431848   10.19696495497174
H        18.51999477047702   12.80734621088326   11.55619171420581
C        19.90183230551805   11.21475119162149    9.74019345197726
H        19.95767227332107   10.22240422687635    9.26641203151230
H        20.22359666572746   11.11457057752679   10.77465854220186
H        20.58161723676256   11.89383499972019    9.22892900790393
C        16.85085443380629    9.62780976198064    5.42516565965810
H        17.41967578265625    8.79780065966717    5.86622956660968
C        15.36007291398002    9.35980129472013    5.65399762394493
H        15.15618985605933    9.22839525079678    6.71369307439359
H        15.05313003208122    8.45719680715614    5.12984362950300
H        14.76434039912564   10.19430855459743    5.28795790948809
C        17.15747754186599    9.68350343297982    3.93015532124089
H        16.48374987476917   10.36407017758673    3.41423886233624
H        17.03315501624126    8.69527770719299    3.49247584209297
H        18.18185262407001   10.00723345224424    3.76186151554400
C        20.55638484739541   10.52127868140717    6.01479965168059
H        20.43842601229758   11.20722036039893    6.84231046614455
C        21.14648218032537   10.95227431492428    4.85067066931134
H        21.48589045839866   11.97301145661018    4.79607337906457
C        21.30748409254631   10.06695343153762    3.77125778867643
C        20.78586723929149    8.77585568422722    3.97286658109776
H        20.82566944427213    8.03264802282691    3.19505537099818
C        20.19891825292829    8.44733864691387    5.16812721592789
H        19.77591250238524    7.46559479102311    5.31742503858362
C        22.45374395048178   11.75488396312424    2.44470059732075
H        21.70419064685838   12.51170781341099    2.68186590936543
H        22.76102380557323   11.90292517618303    1.41197976745700
H        23.32494933731417   11.90957127024285    3.09277435237443
C        22.27049339192032    9.41762310101893    1.64056040044047
H        22.86926126563034    8.63164220070414    2.11215480790019
H        22.85836069088306    9.86589187738159    0.84352797171856
H        21.38503537931218    8.95954726361913    1.19128760291260

