91
CSD_code = UWUBEV | q = 0 | S = 0 | Stoichiometry = C34H54N2Zr | MND = 13
Zr        1.36131009819412   11.30072821416192   10.25037729750483
N        -0.29940264931691    9.26129711004595   11.38006912789341
N         4.20080769140078   11.84335758202072    9.50916136805237
C         0.93972381995421    9.27851225289548   11.08118365350887
C         1.84939871335795    8.05267711137331   11.30999587178404
H         2.02341083258874    7.61670189827980   10.31772276746933
H         1.34768924125628    7.28896109885223   11.91107401810072
C         3.16548353505060    8.37357099764194   11.96742613146985
C         4.18284042442618    8.94248669861525   11.31001113384645
C         4.06928516943985    9.39611354015338    9.87950397998940
H         3.38237800888499    8.74563093623966    9.32697268423645
H         5.05246477429682    9.33044107425289    9.40290042306499
C         3.49437226592352   10.83367434718182    9.82273973514162
C         3.28412202319461    7.90562866372646   13.39898214772957
H         3.79885091255708    8.62904422596336   14.02855505721961
H         3.83900376339271    6.96678052555181   13.44758145599207
H         2.30033447434931    7.73101143066948   13.82901473554396
C         5.54944676032430    9.14713159502786   11.90710424607857
H         5.60106135034584    8.84942004242649   12.94861036197224
H         5.84612948285864   10.19213086122239   11.83347544023095
H         6.27958587808779    8.55376556988102   11.35368674827884
C        -1.00679952245949    8.14828968647471   12.02078813183662
H        -0.40111015068034    7.73222682940540   12.84302328106083
C        -2.30848190188881    8.67644151624597   12.62944219954096
H        -2.10380273162724    9.43749551588025   13.37826937722210
H        -2.85306049446469    7.86360956520888   13.10612919565493
H        -2.94023605171621    9.11094534482248   11.85817540277963
C        -1.33188921244995    7.01546671283756   11.03996778578078
H        -0.43200768161812    6.63096235283051   10.56588740912756
H        -2.00824852729017    7.36910580884973   10.26422193366851
H        -1.81796142300371    6.19772939342471   11.56936263910660
C         5.63538470316861   11.82922376846389    9.21107125317680
H         6.15475276849194   11.03339495360977    9.76526407766087
C         5.89542294823409   11.61846513320625    7.71705767458024
H         5.52037193788062   10.65304532411101    7.38671138495306
H         6.96539745914912   11.65944182136747    7.52026400455732
H         5.40957303829332   12.40125324132311    7.13821138633640
C         6.24733629066717   13.16445743233121    9.64283761434907
H         6.08598050272354   13.33971512831532   10.70392219735763
H         5.80479029078041   13.98460458155248    9.08214507432541
H         7.31957202374593   13.15715408540068    9.45532587186093
C         1.47392794455071   10.95337413165258    7.75078405017629
C         1.04756833131533   12.29118412515955    7.98830233680371
C        -0.27020841213364   12.24289694575369    8.52751675084659
C        -0.63182020265378   10.87566723978377    8.66273098936783
C         0.44150084793401   10.08044808843958    8.18661459230082
C         2.60909365835464   10.55880988922870    6.84838578556385
H         2.22472692322639   10.37903102651045    5.83992192293430
H         3.10273953379228    9.64477373604079    7.17592426889597
H         3.34525158945705   11.35361888890630    6.78864793433636
C         1.82662123613605   13.51173991866031    7.57565357127625
H         1.84721969094967   13.60699651849485    6.48659971240855
H         2.85687000278689   13.44067828801876    7.93229303211278
H         1.38406388587068   14.42066208242624    7.97947800458559
C        -1.29536794477396   13.34532947042062    8.47282637975830
H        -1.98084464920907   13.14441478934281    7.64445311943836
H        -0.83746730037496   14.31176893720719    8.28371944594051
H        -1.89352310710907   13.40854305030815    9.37996231354457
C        -2.00634814284122   10.36585997015594    8.98820948390200
H        -2.47166871267517    9.93824918175179    8.09643132369635
H        -2.64515915783525   11.16796551794238    9.35090119109849
H        -1.95623504014075    9.59028598112475    9.74956344189232
C         0.37618848485829    8.60370772855204    7.91549234121227
H        -0.09725432394670    8.42026247276653    6.94668589413802
H        -0.21264213355166    8.09337942832790    8.67382230221249
H         1.37127618429424    8.16066794778452    7.88201914262814
C         2.09500101782059   13.48866445754263   11.40653148666162
C         2.36694825560415   12.38309386206328   12.25438329615937
C         1.11993822917276   11.82268355316690   12.65362453166386
C         0.08453093511978   12.57416240718670   12.03102813136176
C         0.68773204064928   13.62104478296587   11.28049812783374
C         3.11413402402316   14.48269261905628   10.92771140873160
H         2.63501484190542   15.32467354300309   10.43332365205259
H         3.80469853096104   14.01035034360368   10.23123066007296
H         3.68976946632708   14.86981795960751   11.77104220601795
C         3.70419356419512   12.06373930286075   12.86068626586164
H         3.86217366793154   12.66452147432292   13.76139208087890
H         4.50682359948441   12.28965981097841   12.16163372239677
H         3.76609180075917   11.01425758330332   13.14121505429768
C         0.93507163711394   10.84927589019486   13.78487189443295
H         0.96333539797030   11.38367449230526   14.73955743643612
H         1.72748655969245   10.10407956848945   13.79721259481122
H        -0.02238292970560   10.34009863968216   13.71271022544572
C        -1.38448625486097   12.35754303936289   12.27612711909806
H        -1.60654231549695   12.42350411240978   13.34350088077164
H        -1.68772585085824   11.36957712312138   11.92444371824691
H        -1.98600865375586   13.10982892533429   11.76898615012141
C         0.03153593090788   14.91640821874641   10.87664237508654
H         0.30315474529735   15.68729871824523   11.60365546427775
H        -1.05207242437715   14.84213440382097   10.87721641524283
H         0.35459416133391   15.26760584201954    9.89820949092147

