67
CSD_code = UWUFEZ | q = 0 | S = 0 | Stoichiometry = C26H40Zr | MND = 12
Zr        2.17295654597015   10.38497693071230   11.73823681366058
C         1.61262580192018   10.34002683989663   13.88246018117876
H         0.74824396827554   10.96452608475087   14.17373943939827
H         1.39694015535466    9.33173128502148   14.27695435780302
C         2.84550348770956   10.83345696888338   14.60639017792419
C         4.04746417664142   10.81668809557632   14.01282286368925
C         4.21158624890989   10.29424740728973   12.60289644977429
H         4.62690879163844    9.27543581184616   12.69301170099703
H         4.98773742587428   10.88606604155918   12.08371369557522
C         2.68497270510633   11.25743356350432   16.05102024458245
H         3.10964066466675   12.24582025776500   16.23334427595556
H         3.19846934162461   10.55928497821739   16.71460146509083
H         1.63410414743584   11.28120171142982   16.33223548390825
C         5.30140871093367   11.22186836356989   14.75770455014944
H         5.18268210608046   12.18393512399215   15.25858925945781
H         6.14933339432296   11.29140700576477   14.07835283235222
H         5.54340841621606   10.48513926822314   15.52714238116554
C         2.71423997605582   12.29235898315195   10.18563885223790
C         1.32908075558146   12.02784390574737    9.98340552253199
C         0.65248104311652   12.33295545246087   11.19862825365949
C         1.60854639057815   12.83760548580310   12.12175275463241
C         2.87959238246613   12.81408542242315   11.49670863768308
C         3.80332171794260   12.23189113498840    9.14414938840324
H         4.30613513331415   13.19794347230875    9.06662360020416
H         3.39105198632476   11.99821282775903    8.16432235062385
H         4.56316157775981   11.48146000082298    9.39357234349302
C         0.68112930391985   11.92151123859133    8.62762399637883
H         0.72836181609028   12.89828273231889    8.13628702828299
H        -0.36823568625100   11.64931145779114    8.70377163975233
H         1.17864210854888   11.20698045476784    7.97715855413378
C        -0.83458562417967   12.32017949649504   11.44866806948587
H        -1.17791011597862   13.31677461180751   11.73394226666233
H        -1.10124696744999   11.63201410150827   12.25917342941043
H        -1.38449925178845   12.03000474441400   10.55538684595040
C         1.30862545371856   13.54728179923021   13.41207976450421
H         1.32967243204932   14.62839129697337   13.24954354874324
H         2.05126456451081   13.31094741998480   14.17149114128074
H         0.32268281119248   13.28721849910425   13.79171439322274
C         4.10598094334991   13.49557291876060   12.03546367358466
H         3.99353953149609   14.57926881967587   11.94287237707094
H         4.99842263844224   13.20497715355909   11.48490165195107
H         4.25240211096574   13.26558906666837   13.08896025310563
C         2.90024020790771    8.17685301617364   10.72354903783816
C         2.15771035365908    7.86924664384114   11.89470611324411
C         0.81434871305528    8.27423915745542   11.66700103885698
C         0.71940978702762    8.78251563261753   10.34150639838486
C         2.01077352470072    8.72197070201006    9.75777000112328
C         4.32133363705388    7.78623285221573   10.41412540886434
H         4.33843750089133    7.01395381257493    9.63994301433287
H         4.82145936425505    7.38629541699165   11.29322536604575
H         4.90045435367774    8.63635982249366   10.04437883458366
C         2.68139375374375    7.12850673638839   13.09684019432651
H         3.38474040616617    6.35708299637388   12.78318019628305
H         1.86638993391414    6.63355013527432   13.62233586090577
H         3.19122329254437    7.79037696751897   13.80192302736376
C        -0.38705843373410    8.02395067762760   12.54088751452339
H        -1.05887253758131    7.30801464253503   12.05939028166085
H        -0.95407618979252    8.94266032404715   12.71712477225474
H        -0.09817989387553    7.61216752004391   13.50556840507282
C        -0.60073305804641    8.98838308438472    9.64960300017497
H        -1.14535770446118    8.04043783763539    9.61912639298301
H        -0.46992505117069    9.32200889095191    8.62368353748184
H        -1.23167280123702    9.70562138969207   10.17686364126223
C         2.38011586885240    8.85228915354597    8.30429195671061
H         2.78799677061902    7.90264387563953    7.94888848041261
H         3.14304105905216    9.61440661052597    8.13358854469666
H         1.51056402230695    9.07832386635636    7.69084247093187

