45
CSD_code = UWUJAY | q = 0 | S = 0 | Stoichiometry = C16H14N8O4PdS2 | MND = 4
Pd        4.98617235769562    3.07242415534010    8.74970853049767
S         5.52464145545047    5.04864992170363    9.90683224344687
N         7.17656390004400    4.96640748400716   11.94651867962055
H         7.87758324290722    4.56447391419890   12.54313636608601
H         6.84356974319766    5.89831473383058   12.11528300242403
N         7.18304332112615    3.08044921822863   10.66394050079566
N         6.66297223545749    2.39286576691887    9.64342604046103
N        12.16890053666889   -1.11001647873401   10.69773972520897
O        12.46523912399189   -2.13659886205367   10.12109491587862
O        12.84321448259230   -0.58504192343226   11.56071732871042
C         6.69873974049601    4.27146268862356   10.90186931722020
C         7.28670939516193    1.33607952394702    9.20616108925565
H         6.79107866928353    0.79397105544313    8.40662333243499
C         8.54155777158946    0.76577516210228    9.63860405817086
C         9.37356533937488    1.32164786330660   10.62202676699429
H         9.07183562205446    2.23533523510638   11.10542863006834
C        10.55796679737080    0.70884261730756   10.96651125348632
H        11.20652855716994    1.12821127814804   11.72054961978531
C        10.93403394679717   -0.47241109779368   10.33528053117636
C        10.12634238464406   -1.04356589020645    9.35482814649816
H        10.44302349138043   -1.96029988640909    8.88141232593674
C         8.94611992109295   -0.42714106863704    9.01271281644276
H         8.31564922823857   -0.86499094104962    8.25359220091338
S         4.44686420567091    1.09632495140040    7.59314246892556
N         2.79491080372635    1.17899405819470    5.55345217141295
H         2.09324458729922    1.58088069467945    4.95755082538976
H         3.12751867929839    0.24697248082135    5.38463798563157
N         2.78804900744800    3.06441470457720    6.83673069325498
N         3.30866091523305    3.75173476153444    7.85710863418677
N        -2.19091115554181    7.26384781042819    6.79900705775630
O        -2.48613424699181    8.29062109791363    7.37597654255946
O        -2.86576865343228    6.73990034940433    5.93588094895081
C         3.27228849174189    1.87341825968322    6.59860770771615
C         2.68582912707802    4.80907034816112    8.29428108001490
H         3.18152924970700    5.35027406511027    9.09438446536419
C         1.43208481524022    5.38129581123426    7.86111647348038
C         0.59988953455311    4.82694409442905    6.87699908729518
H         0.90032664727767    3.91263515989227    6.39399756091985
C        -0.58328753209519    5.44177304385383    6.53179393103986
H        -1.23184073826060    5.02380910966767    5.77695388903114
C        -0.95765958149957    6.62377137399739    7.16264806561061
C        -0.14968647812763    7.19351759453150    8.14368893730572
H        -0.46508337174332    8.11079927729383    8.61687502475944
C         1.02909324949901    6.57487506319738    8.48681495231016
H         1.65983118013330    7.01158142009704    9.24635407557023

