58
CSD_code = UWUJEC | q = 0 | S = 0 | Stoichiometry = C26H22ClN4O2PPdS | MND = 4
Pd        4.34438797581411   31.26700565246528    1.24827485912782
Cl        3.36858649954902   30.37656189955008   -0.62271205662519
S         5.48405323169994   32.05914607059066    3.09867560129043
C         6.38109571883920   33.22560008032105    2.18870148184245
N         7.37695217298173   33.85754965697880    2.83846668431558
H         7.85552553239243   34.62140464187028    2.39454115794697
H         7.48564529672505   33.70806407755212    3.82549714751806
N         6.14832931327408   33.54767728644597    0.94514638745242
N         5.19326507320424   32.86470853805000    0.29710942472654
C         4.77925408705510   33.26884776951226   -0.86480414696905
H         4.02669828851949   32.63558964402594   -1.32662314753858
C         5.18471557386674   34.42024251721593   -1.63673382931606
C         4.52295526113257   34.63516021897468   -2.85868609163624
H         3.75628342238797   33.94208525877313   -3.17085351939272
C         4.83714024071845   35.71066309222662   -3.65508623379973
H         4.33248561992635   35.88563512629419   -4.59292279778012
C         5.83074173225253   36.59696877931833   -3.24408866119599
C         6.50545133637799   36.40048569701434   -2.04274040982521
H         7.27386059042003   37.10145350057217   -1.75395201488967
C         6.18419525190164   35.32426245367989   -1.24640968601666
H         6.69984128123022   35.16032585037036   -0.31494994673372
N         6.16176975003619   37.72320036496586   -4.06693199963212
O         5.54845635033793   37.86682231712452   -5.10622998618280
O         7.03649386876332   38.47234420498583   -3.67718247196393
P         3.36048954851987   29.51668853212954    2.23515476673520
C         4.23324761452439   28.00337341357239    1.74697699166439
C         5.37180437285624   28.15661692347414    0.95868276795624
H         5.67267484990528   29.16146616356546    0.63279900252798
C         6.11142089183418   27.04747194841746    0.59051654024252
H         6.99057057504269   27.16394075347509   -0.02547655640185
C         5.72241813871864   25.78688361067547    1.01450673423696
H         6.29558215639086   24.91987875242025    0.72155578344157
C         4.60864155782858   25.63536868764748    1.82570781035083
H         4.32148184217679   24.65266322824825    2.16997526396031
C         3.86798546225556   26.74053584430759    2.20317664088110
H         3.01888090349964   26.63067360513471    2.86383471405270
C         1.61244600411086   29.48941452025574    1.75639684042773
C         1.03972157690111   30.75874966061247    1.66696243827688
H         1.66834377301730   31.63822132877046    1.85572589703635
C        -0.28791367701891   30.89555923717125    1.31470186010423
H        -0.73281975971515   31.87671033059771    1.24015075314039
C        -1.04516285088652   29.76567640856994    1.04012600484456
H        -2.08137398065799   29.86993894371562    0.75474670585684
C        -0.47283503766888   28.50731315564080    1.11225130817388
H        -1.06221903593732   27.63241756990983    0.88035699822726
C         0.85720713158194   28.36194491321953    1.47208367547399
H         1.30712740197885   27.38105771564054    1.50689424119087
C         3.31301257619763   29.32464835498184    4.04579540931734
C         2.13845611564552   29.38606720500802    4.78508786980864
H         1.19140621401415   29.53566508503177    4.28524789140621
C         2.18635197776952   29.25380008247529    6.16242489864507
H         1.27234654774616   29.29932624552240    6.73630111908805
C         3.39904949219695   29.06730153328565    6.80373169649114
H         3.43084247686429   28.96766474621311    7.87854472892881
C         4.57376226269292   29.01428062827160    6.06837691873144
H         5.52016217979957   28.87531342088640    6.56956993031873
C         4.53249225005897   29.14452010431498    4.69455903104286
H         5.44311497833949   29.11724264799029    4.10824757899479

