56
CSD_code = UWUJUT | q = 0 | S = 0 | Stoichiometry = C29H23INPPt | MND = 4
Pt        0.65989009407804    8.17497430839138   13.24904108986433
I         2.31826008574090    7.11800298138058   11.48312767059023
P        -0.46303411709988    9.20975279533559   11.57853721736832
N         1.58966859951916    7.39850211387829   14.90894106926943
C        -0.41540646200611    9.09684342899063   14.68801577608818
C        -1.55258947922785    9.88965720432502   14.58574775345219
H        -2.07825109013651    9.97496009487338   13.64277691231180
C        -2.05971244133739   10.57806736492547   15.67387347151751
H        -2.94714949309359   11.18417340074014   15.55770531617853
C        -1.43016412945010   10.49940132238221   16.90594448536152
H        -1.81312986632435   11.05350494119783   17.75036999430997
C        -0.31969519844361    9.69493734504528   17.05215039688014
H         0.15661210955232    9.62383408783497   18.01894057698513
C         0.18180616198258    8.98463391652145   15.96090209030136
C         1.27650483934780    8.03007063668939   16.06220901263904
C         1.93274225983761    7.70249750805852   17.24936493848421
H         1.68913852015779    8.22822823301753   18.15791735787046
C         2.88732877490170    6.70588132768791   17.26004014330070
H         3.40241540695828    6.44864903835519   18.17334804028196
C         3.15884520928068    6.03585691381089   16.07668943315527
H         3.87946987900688    5.23584084170994   16.03348928338906
C         2.49043354257757    6.42067654743296   14.92992216560019
H         2.70240174713768    5.92103946147946   13.99496357161284
C         0.06771892944033    9.18183895596480    9.83530734234580
C         0.80077166074744   10.21587062179358    9.26688772684968
H         1.05401873734525   11.08827402022431    9.85330646619677
C         1.21214219852661   10.12440806110247    7.94844624170139
H         1.78248851422466   10.93026194347610    7.51014839439042
C         0.90367507407127    9.00367858605765    7.19739774540822
H         1.23237480526370    8.93423053907612    6.17120922178734
C         0.18320130983505    7.96458797865245    7.76568065992883
H        -0.04600581813886    7.08285554968057    7.18620513836147
C        -0.23143694424706    8.05048414010060    9.07943918231050
H        -0.77702161224022    7.23428204128833    9.53501629788766
C        -2.18760734867783    8.66763744451798   11.38327228429710
C        -2.65512397874937    7.68678649473290   12.25135508070802
H        -1.98629471210459    7.30815509919212   13.02143200452622
C        -3.94459129772798    7.20377416576942   12.12783122989609
H        -4.30417423866069    6.44177489095453   12.80332545762661
C        -4.77128011165843    7.69632806541794   11.13106872261799
H        -5.77992157440304    7.32309726666841   11.03280805702707
C        -4.30134951699378    8.65538340855871   10.24720262574472
H        -4.94213958733272    9.02312634021171    9.45901346601309
C        -3.00971416200068    9.13577724876785   10.36273189770499
H        -2.63085905490811    9.85572653743301    9.64978698549058
C        -0.43770411119638   10.99643575823699   11.93143806946765
C        -1.44161225098176   11.90454147881388   11.62711907914322
H        -2.35447982308942   11.57147634164300   11.15511095252876
C        -1.27985289710330   13.23980284330304   11.95531754950622
H        -2.06489534417858   13.94570431811336   11.72608718265254
C        -0.12087734941421   13.67328335813927   12.57724242255296
H        -0.00282060773493   14.71666846872375   12.82959798443406
C         0.88426740893459   12.76921391845031   12.88377093099831
H         1.78587062803627   13.10537552850901   13.37416455186398
C         0.72231229197626   11.43532718462293   12.56549524862858
H         1.49493583017805   10.70544558773945   12.81296603259759

