86
CSD_code = UXADAZ | q = 0 | S = 0 | Stoichiometry = C38H42AuN2O2P | MND = 2
Au        8.85257248412665    5.18188264081443    4.44368529703778
P         7.10082725476539    4.11738544241969    3.47023493622622
O        12.10042373467250    7.90285678573282    2.62528578079680
N        10.45344451416529    6.39185212682222    2.52961671067911
C        11.92674650417997    7.68557871348605    1.23481748797917
H        12.86668664644668    7.31522242019830    0.81567716435853
H        11.67912845406291    8.64030673925637    0.76371383563164
C        10.78345347977619    6.63893711297675    1.14407426812829
H        11.15229036102357    5.70059928269865    0.70897198326439
C         9.53746199815716    7.06617534167444    0.33559232922037
C         9.92483097969174    7.34420768260753   -1.11818972741104
H        10.60782748083091    8.18677479474207   -1.19516022999448
H         9.03453141841285    7.57431056231856   -1.69951824871397
H        10.40667594615292    6.47368288198351   -1.55850664737385
C         8.54912237151787    5.89881950158517    0.37836908500389
H         8.94731761760025    5.03979579402367   -0.15798127847738
H         7.60053472395193    6.18234892819506   -0.07326306658246
H         8.37882329132197    5.60298662621310    1.41226851700712
C         8.88943847179539    8.30443293806175    0.95653660556018
H         8.71116024493989    8.13510213516452    2.01563590209692
H         7.93964948335106    8.51455548198867    0.46954115532095
H         9.52538723332249    9.18070123431168    0.85142734836723
O         9.63343600299293    5.45401514330183    8.93353043076731
N         8.90588263019862    4.41713470180499    7.08951935825256
C         8.78575735131463    4.43155201046612    9.43180459139587
H         7.92977950475719    4.89727989970030    9.93176643423971
H         9.34303332215642    3.84123533203661   10.16178361570903
C         8.36152718398124    3.63089505465966    8.17192095205327
H         7.27028008395913    3.59348958948639    8.07582897693536
C         8.88785086706177    2.17602738852691    8.09739795206179
C        10.41582015483868    2.14624345034393    8.16315899981022
H        10.83261607175035    2.73549236947528    7.34908300335746
H        10.77253308428509    1.12264502402624    8.07019688158540
H        10.78596985396465    2.54762490141290    9.10377031873353
C         8.28766753558734    1.34814699939539    9.23482151151026
H         8.61096931465984    1.71132654196639   10.20748528520121
H         8.59836405134273    0.30993935857900    9.14036115707744
H         7.20050026303435    1.38540168178421    9.19924719559989
C         8.43935991364757    1.59142998541173    6.75600286783526
H         7.35646062668425    1.49901782714454    6.72129249648666
H         8.87686103756834    0.60683052015645    6.60463490568205
H         8.75509736560989    2.25304615373169    5.95288712674823
C        10.29959715959952    6.28049837313190    5.40308958988490
C        10.42220178637101    6.28072103865944    6.80182776142064
C        11.33609762371569    7.09050154158578    7.47670488921890
H        11.38405325856880    7.05222753507616    8.55530093488399
C        12.17737695888069    7.92419430123445    6.76473006828319
H        12.88364992893716    8.55765948194440    7.28260013833351
C        12.12033455887264    7.92680850792784    5.38423673451712
H        12.78593541791632    8.55346842334400    4.80876756284835
C        11.19897736949945    7.11476606496380    4.72109580471449
C        11.20245612707100    7.10759024150399    3.26693132370257
C         9.61092009689129    5.35675704663048    7.57736011701226
C         6.05699236804701    3.19098340079452    4.63790774026365
C         5.68140260862231    3.89562273344631    5.77819712940961
H         6.05483067564603    4.90219451721244    5.91684256754953
C         4.86028510842275    3.30549655998925    6.71913659412767
H         4.56408016720468    3.85447925110075    7.60163260253506
C         4.41831275192841    2.00443640651683    6.53167370713009
H         3.78093517539343    1.53876621316708    7.26907072243139
C         4.79759928798818    1.29935520041815    5.40165997513027
H         4.45582884780892    0.28436641533402    5.25890408074108
C         5.61355564133761    1.88839812153475    4.45066970132217
H         5.90822569159687    1.33290171984815    3.57112523795160
C         5.81314776771173    5.18938862469051    2.76203440221098
C         4.60437590687303    4.67067307407825    2.30479379333130
H         4.42272674904015    3.60534530855552    2.35656493027564
C         3.64323417438599    5.52080399600729    1.79167796935483
H         2.70709789672113    5.11929172563853    1.43147268336171
C         3.87628441857597    6.88708357499582    1.74201625144894
H         3.12138520886175    7.54643686189027    1.33941779045374
C         5.06946004894904    7.40672466482221    2.21537601273469
H         5.24629433477277    8.47183203403610    2.18721117564281
C         6.03572067972723    6.55980070474009    2.72853273610251
H         6.97151039686529    6.94674565323971    3.11004706652043
C         7.46084081377282    2.89533603115221    2.17774033789515
C         6.99528293417742    2.96471167172792    0.87064153507320
H         6.32956181971560    3.76146470247883    0.57231935498615
C         7.39183176927380    2.01049992890222   -0.05034222133097
H         7.02611218336904    2.06358062531524   -1.06561154908457
C         8.25588333944820    0.99424140734988    0.32152771809899
H         8.56093065893446    0.25322874416344   -0.40260818647492
C         8.73757656265325    0.93341386327222    1.62043097108582
H         9.42028706371082    0.14767596095930    1.90885811609217
C         8.34921104101788    1.88487465041533    2.54293189552343
H         8.72709470765394    1.85876399550060    3.55727896389479

