74
CSD_code = UXAHAE | q = 0 | S = 0 | Stoichiometry = C40H29N2PPdS | MND = 4
Pd       14.42788994344709    3.04070139728282    1.96657074784929
S        13.75375204609147    1.36794680305389    3.56670261515895
P        16.29751268820758    2.01155853673703    1.26968344184091
N        12.97000985918856    4.07241135130413    2.76977461655599
N        12.10192402423197    3.46270845513540    3.57820765127472
C        14.49661935464857    4.42820894455147    0.49536204485867
C        14.82889362123095    4.06482053138146   -0.78816225191028
H        14.95288673031674    3.01718514995616   -1.05146974931021
C        15.06606144960181    5.01722370392688   -1.79604218929748
H        15.33071610996561    4.68074232598976   -2.78845423017020
C        15.01106370088682    6.34464414885880   -1.50279624960619
H        15.24839446872252    7.09204944351187   -2.24616953397694
C        14.22895373689394    9.96795702694830    1.67512167351297
H        14.52828748808671   10.65956141153392    0.90039251334190
C        13.88436225916822   10.41424416066609    2.91374333431215
H        13.89643692060278   11.46907284613231    3.14524888894280
C        13.52272713288928    9.48919993559787    3.90930735847603
H        13.27850322937133    9.84676216963511    4.89899151852505
C        13.48720328210476    8.15108200691447    3.64034995643662
H        13.23655468655383    7.47324795163505    4.44139427718383
C        13.78493569766130    6.25815296674755    2.03557810839187
C        14.57290221613570    8.13425166436604    0.09818615345935
H        14.81870534168201    8.85688536696732   -0.66794929872491
C        14.21760236098796    8.58456059902875    1.36600502026724
C        13.81396686030649    7.64223440311323    2.36104859209165
C        14.31130749569096    5.80742071153767    0.79193068124663
C        14.63467136009746    6.77784444851946   -0.20878184397845
C        13.09033299379846    5.36068886800739    2.91035152445552
H        12.49029095516775    5.79788075037168    3.70588885436560
C        12.31066466951243    2.23351507242696    3.94227316772202
C        11.29781716360825    1.59397217217683    4.78131176852509
C        11.50649946750137    0.33012212723355    5.32910835791271
H        12.43513126301353   -0.18415319385900    5.13127168824848
C        10.53752855434612   -0.25731638358654    6.11910006976174
H        10.71101288469030   -1.23694353613350    6.54039318233191
C         9.34758249883678    0.40506599765234    6.37186910485741
H         8.59127900222817   -0.05606024311292    6.99031619767851
C         9.13013108408861    1.66190842270532    5.82891614634083
H         8.20257339062777    2.18080772392531    6.02345031037549
C        10.09568135801561    2.25482652943580    5.04059498187235
H         9.93791930778327    3.23276438339626    4.61315299256256
C        17.41404960833722    1.15342156197154    2.42642923058974
C        18.69547113701172    1.60643705186777    2.71757226528209
H        19.07914737355272    2.49463135940720    2.23470153786018
C        19.47925460348581    0.91643200648344    3.62652811532546
H        20.47552224639684    1.26988021472547    3.84963239547014
C        18.99073909322474   -0.21943009614967    4.24940501316704
H        19.60580768574741   -0.75229591889119    4.95947433168554
C        17.71007027873621   -0.66936525741067    3.96626009811958
H        17.32490108230498   -1.55127375356473    4.45626769959676
C        16.92265646419841    0.01399585840447    3.06093013058798
H        15.91691754352399   -0.32231590520577    2.84406499943970
C        17.42690712852220    3.11218449742456    0.36275792524827
C        18.06167377483153    2.81901282341303   -0.83442773575614
H        17.92702164052217    1.85350731400572   -1.30016980210951
C        18.84932790569543    3.78178366320507   -1.44432361858530
H        19.33790723385921    3.55811826944483   -2.38153479584823
C        19.00477503756309    5.02912145738026   -0.86495522703643
H        19.61356935033085    5.77680539304159   -1.35127752096447
C        18.37096435167020    5.32570928316471    0.33275407969784
H        18.48306797879397    6.30255576352099    0.77938225586633
C        17.58156486404782    4.37124815179080    0.94081355697166
H        17.04886821272524    4.59143368437245    1.86573209279466
C        15.81973461854908    0.64035448369161    0.17541876618327
C        16.72080009442799   -0.29204809895182   -0.32864920379689
H        17.77017859622504   -0.21633700039569   -0.07729090179771
C        16.26432664070703   -1.32294682719000   -1.13009246937507
H        16.96282076606123   -2.04544800722480   -1.52656589358499
C        14.91295122885787   -1.43666474258170   -1.41707254075780
H        14.56277837134242   -2.24569326890917   -2.04093564395738
C        14.00830442516202   -0.52579632427478   -0.89434846344268
H        12.95412689762323   -0.62887661695317   -1.10480131001239
C        14.45871411367943    0.51107095902444   -0.09751197403847
H        13.75299099436206    1.23413086947763    0.33886041333504

